<?xml version="1.0" encoding="UTF-8"?>

<!-- generated on 2025-03-27 16:01:15.446042 by randomTrips.py v1_20_0+0000-96efa4d36d6
<configuration>
    <net-file value="osm.net.xml.gz"/>
    <output-trip-file value="osm.pedestrian.trips.xml"/>
    <route-file value="osm.pedestrian.rou.xml"/>
    <pedestrians value="True"/>
    <prefix value="ped"/>
    <vehicle-class value="pedestrian"/>
    <fringe-factor value="2"/>
    <max-distance value="2000.0"/>
    <validate value="True"/>
    <insertion-density value="10.0"/>
</configuration>
-->

<!-- generated on 2025-03-27 16:01:14 by Eclipse SUMO duarouter Version 1.20.0
<configuration xmlns:xsi="http://www.w3.org/2001/XMLSchema-instance" xsi:noNamespaceSchemaLocation="http://sumo.dlr.de/xsd/duarouterConfiguration.xsd">

    <input>
        <net-file value="osm.net.xml.gz"/>
        <route-files value="osm.pedestrian.trips.xml"/>
    </input>

    <output>
        <output-file value="osm.pedestrian.trips.xml.tmp"/>
        <alternatives-output value="NUL"/>
        <write-trips value="true"/>
    </output>

    <time>
        <begin value="0.0"/>
        <end value="3600.0"/>
    </time>

    <report>
        <no-warnings value="true"/>
        <ignore-errors value="true"/>
        <no-step-log value="true"/>
    </report>

</configuration>
-->

<routes xmlns:xsi="http://www.w3.org/2001/XMLSchema-instance" xsi:noNamespaceSchemaLocation="http://sumo.dlr.de/xsd/routes_file.xsd">
    <vType id="ped_pedestrian" vClass="pedestrian"/>
    <person id="ped0" type="ped_pedestrian" depart="0.00">
        <personTrip from="-699635222" to="-699635200#1" walkFactor="0.75"/>
    </person>
    <person id="ped1" type="ped_pedestrian" depart="2.27">
        <personTrip from="699308691#0" to="699305971#0" walkFactor="0.75"/>
    </person>
    <person id="ped5" type="ped_pedestrian" depart="11.33">
        <personTrip from="697549037#0" to="696548847#2" walkFactor="0.75"/>
    </person>
    <person id="ped8" type="ped_pedestrian" depart="18.12">
        <personTrip from="699536222" to="699308683#1" walkFactor="0.75"/>
    </person>
    <person id="ped9" type="ped_pedestrian" depart="20.39">
        <personTrip from="1259366879#4" to="-699443747#2" walkFactor="0.75"/>
    </person>
    <person id="ped10" type="ped_pedestrian" depart="22.65">
        <personTrip from="953883950#3" to="378875703#1" walkFactor="0.75"/>
    </person>
    <person id="ped11" type="ped_pedestrian" depart="24.92">
        <personTrip from="-699037769#1" to="-699147655#1" walkFactor="0.75"/>
    </person>
    <person id="ped12" type="ped_pedestrian" depart="27.18">
        <personTrip from="699635205#1" to="697549037#0" walkFactor="0.75"/>
    </person>
    <person id="ped13" type="ped_pedestrian" depart="29.45">
        <personTrip from="699536225" to="699391002#0" walkFactor="0.75"/>
    </person>
    <person id="ped14" type="ped_pedestrian" depart="31.71">
        <personTrip from="681784958#6" to="954599927#2" walkFactor="0.75"/>
    </person>
    <person id="ped15" type="ped_pedestrian" depart="33.98">
        <personTrip from="699635155#2" to="698164875#1" walkFactor="0.75"/>
    </person>
    <person id="ped16" type="ped_pedestrian" depart="36.24">
        <personTrip from="699637056#1" to="696650156#10" walkFactor="0.75"/>
    </person>
    <person id="ped17" type="ped_pedestrian" depart="38.51">
        <personTrip from="699214152" to="-501177572#0" walkFactor="0.75"/>
    </person>
    <person id="ped18" type="ped_pedestrian" depart="40.77">
        <personTrip from="-699536257#1" to="1259366879#1" walkFactor="0.75"/>
    </person>
    <person id="ped19" type="ped_pedestrian" depart="43.04">
        <personTrip from="-699147649" to="1085559679" walkFactor="0.75"/>
    </person>
    <person id="ped21" type="ped_pedestrian" depart="47.57">
        <personTrip from="-699635201" to="953699285" walkFactor="0.75"/>
    </person>
    <person id="ped22" type="ped_pedestrian" depart="49.84">
        <personTrip from="697048051" to="698159130" walkFactor="0.75"/>
    </person>
    <person id="ped24" type="ped_pedestrian" depart="54.37">
        <personTrip from="-699443711" to="472559590#0" walkFactor="0.75"/>
    </person>
    <person id="ped25" type="ped_pedestrian" depart="56.63">
        <personTrip from="958717354#1" to="699145731#1" walkFactor="0.75"/>
    </person>
    <person id="ped27" type="ped_pedestrian" depart="61.16">
        <personTrip from="699635190#5" to="699536193" walkFactor="0.75"/>
    </person>
    <person id="ped30" type="ped_pedestrian" depart="67.96">
        <personTrip from="-699536215" to="953699290#4" walkFactor="0.75"/>
    </person>
    <person id="ped32" type="ped_pedestrian" depart="72.49">
        <personTrip from="698159132#0" to="500826169#1" walkFactor="0.75"/>
    </person>
    <person id="ped33" type="ped_pedestrian" depart="74.75">
        <personTrip from="940217621#3" to="599094620" walkFactor="0.75"/>
    </person>
    <person id="ped36" type="ped_pedestrian" depart="81.55">
        <personTrip from="-699037765#1" to="-501177576#12" walkFactor="0.75"/>
    </person>
    <person id="ped37" type="ped_pedestrian" depart="83.81">
        <personTrip from="-699214137" to="699037764#1" walkFactor="0.75"/>
    </person>
    <person id="ped40" type="ped_pedestrian" depart="90.61">
        <personTrip from="-160247886#1" to="699376444#0" walkFactor="0.75"/>
    </person>
    <person id="ped41" type="ped_pedestrian" depart="92.87">
        <personTrip from="699059992#0" to="696548844#1" walkFactor="0.75"/>
    </person>
    <person id="ped42" type="ped_pedestrian" depart="95.14">
        <personTrip from="-699635201" to="699146801" walkFactor="0.75"/>
    </person>
    <person id="ped43" type="ped_pedestrian" depart="97.40">
        <personTrip from="-699214140#2" to="552085059#3" walkFactor="0.75"/>
    </person>
    <person id="ped44" type="ped_pedestrian" depart="99.67">
        <personTrip from="500828183#3" to="953883948#1" walkFactor="0.75"/>
    </person>
    <person id="ped47" type="ped_pedestrian" depart="106.47">
        <personTrip from="-926161367" to="699144910#1" walkFactor="0.75"/>
    </person>
    <person id="ped48" type="ped_pedestrian" depart="108.73">
        <personTrip from="699391010#1" to="696548846#0" walkFactor="0.75"/>
    </person>
    <person id="ped57" type="ped_pedestrian" depart="129.12">
        <personTrip from="699443712#1" to="-699376431#0" walkFactor="0.75"/>
    </person>
    <person id="ped58" type="ped_pedestrian" depart="131.38">
        <personTrip from="509710161#4" to="696650130#1" walkFactor="0.75"/>
    </person>
    <person id="ped60" type="ped_pedestrian" depart="135.91">
        <personTrip from="472552790#1" to="-699635170#5" walkFactor="0.75"/>
    </person>
    <person id="ped61" type="ped_pedestrian" depart="138.18">
        <personTrip from="681784963#1" to="699391002#1" walkFactor="0.75"/>
    </person>
    <person id="ped64" type="ped_pedestrian" depart="144.97">
        <personTrip from="500826136#12" to="684162599#3" walkFactor="0.75"/>
    </person>
    <person id="ped65" type="ped_pedestrian" depart="147.24">
        <personTrip from="-699304607#0" to="-699635204" walkFactor="0.75"/>
    </person>
    <person id="ped66" type="ped_pedestrian" depart="149.51">
        <personTrip from="1259366878#1" to="696850212#0" walkFactor="0.75"/>
    </person>
    <person id="ped67" type="ped_pedestrian" depart="151.77">
        <personTrip from="-699536264" to="-699635190#4" walkFactor="0.75"/>
    </person>
    <person id="ped68" type="ped_pedestrian" depart="154.04">
        <personTrip from="-59254860#3" to="699037769#6" walkFactor="0.75"/>
    </person>
    <person id="ped70" type="ped_pedestrian" depart="158.57">
        <personTrip from="699637052" to="-596247088#8" walkFactor="0.75"/>
    </person>
    <person id="ped71" type="ped_pedestrian" depart="160.83">
        <personTrip from="-699538715" to="699304610#1" walkFactor="0.75"/>
    </person>
    <person id="ped72" type="ped_pedestrian" depart="163.10">
        <personTrip from="-699536223#1" to="-699376445#1" walkFactor="0.75"/>
    </person>
    <person id="ped73" type="ped_pedestrian" depart="165.36">
        <personTrip from="953699283#3" to="696650154#11" walkFactor="0.75"/>
    </person>
    <person id="ped74" type="ped_pedestrian" depart="167.63">
        <personTrip from="501177583#3" to="699536219#1" walkFactor="0.75"/>
    </person>
    <person id="ped75" type="ped_pedestrian" depart="169.89">
        <personTrip from="699536227#0" to="-699536246#0" walkFactor="0.75"/>
    </person>
    <person id="ped76" type="ped_pedestrian" depart="172.16">
        <personTrip from="-699146805#2" to="552085057#0" walkFactor="0.75"/>
    </person>
    <person id="ped78" type="ped_pedestrian" depart="176.69">
        <personTrip from="699308681#0" to="699304621#0" walkFactor="0.75"/>
    </person>
    <person id="ped79" type="ped_pedestrian" depart="178.95">
        <personTrip from="954599934#0" to="-699148302#0" walkFactor="0.75"/>
    </person>
    <person id="ped84" type="ped_pedestrian" depart="190.28">
        <personTrip from="500826169#0" to="806721801" walkFactor="0.75"/>
    </person>
    <person id="ped86" type="ped_pedestrian" depart="194.81">
        <personTrip from="954595407#1" to="953615088#2" walkFactor="0.75"/>
    </person>
    <person id="ped88" type="ped_pedestrian" depart="199.34">
        <personTrip from="379036554#2" to="-552085059#0" walkFactor="0.75"/>
    </person>
    <person id="ped89" type="ped_pedestrian" depart="201.61">
        <personTrip from="306371084#0" to="958717350" walkFactor="0.75"/>
    </person>
    <person id="ped90" type="ped_pedestrian" depart="203.87">
        <personTrip from="-699635196" to="699536216" walkFactor="0.75"/>
    </person>
    <person id="ped91" type="ped_pedestrian" depart="206.14">
        <personTrip from="500828183#6" to="501177576#19" walkFactor="0.75"/>
    </person>
    <person id="ped92" type="ped_pedestrian" depart="208.40">
        <personTrip from="682823781#2" to="699376437#1" walkFactor="0.75"/>
    </person>
    <person id="ped93" type="ped_pedestrian" depart="210.67">
        <personTrip from="-699384227#0" to="1271646485" walkFactor="0.75"/>
    </person>
    <person id="ped95" type="ped_pedestrian" depart="215.20">
        <personTrip from="681796255" to="699443739#0" walkFactor="0.75"/>
    </person>
    <person id="ped96" type="ped_pedestrian" depart="217.46">
        <personTrip from="-545827857" to="696650158#1" walkFactor="0.75"/>
    </person>
    <person id="ped98" type="ped_pedestrian" depart="221.99">
        <personTrip from="-699391001" to="953883952#6" walkFactor="0.75"/>
    </person>
    <person id="ped99" type="ped_pedestrian" depart="224.26">
        <personTrip from="696548851#0" to="699305969" walkFactor="0.75"/>
    </person>
    <person id="ped100" type="ped_pedestrian" depart="226.52">
        <personTrip from="-699538713#2" to="-699305977" walkFactor="0.75"/>
    </person>
    <person id="ped101" type="ped_pedestrian" depart="228.79">
        <personTrip from="82907257#2" to="-82907330#1" walkFactor="0.75"/>
    </person>
    <person id="ped102" type="ped_pedestrian" depart="231.05">
        <personTrip from="696548850#1" to="698167549#1" walkFactor="0.75"/>
    </person>
    <person id="ped103" type="ped_pedestrian" depart="233.32">
        <personTrip from="-699536193" to="699376432" walkFactor="0.75"/>
    </person>
    <person id="ped104" type="ped_pedestrian" depart="235.58">
        <personTrip from="-699538717#2" to="500826169#2" walkFactor="0.75"/>
    </person>
    <person id="ped108" type="ped_pedestrian" depart="244.64">
        <personTrip from="998466229#0" to="998168640" walkFactor="0.75"/>
    </person>
    <person id="ped109" type="ped_pedestrian" depart="246.91">
        <personTrip from="-596247088#1" to="-699635172" walkFactor="0.75"/>
    </person>
    <person id="ped110" type="ped_pedestrian" depart="249.18">
        <personTrip from="-699635196" to="953699283#0" walkFactor="0.75"/>
    </person>
    <person id="ped111" type="ped_pedestrian" depart="251.44">
        <personTrip from="249856061#0" to="-699446971#0" walkFactor="0.75"/>
    </person>
    <person id="ped112" type="ped_pedestrian" depart="253.71">
        <personTrip from="699635170#3" to="699308692#0" walkFactor="0.75"/>
    </person>
    <person id="ped115" type="ped_pedestrian" depart="260.50">
        <personTrip from="699536259" to="1289027420#0" walkFactor="0.75"/>
    </person>
    <person id="ped116" type="ped_pedestrian" depart="262.77">
        <personTrip from="698164874#0" to="953699287#1" walkFactor="0.75"/>
    </person>
    <person id="ped117" type="ped_pedestrian" depart="265.03">
        <personTrip from="-699305979" to="-699304621#2" walkFactor="0.75"/>
    </person>
    <person id="ped118" type="ped_pedestrian" depart="267.30">
        <personTrip from="-699148304#2" to="696650131#7" walkFactor="0.75"/>
    </person>
    <person id="ped119" type="ped_pedestrian" depart="269.56">
        <personTrip from="-699635216#1" to="697914900#1" walkFactor="0.75"/>
    </person>
    <person id="ped123" type="ped_pedestrian" depart="278.62">
        <personTrip from="699635201" to="-699146809#0" walkFactor="0.75"/>
    </person>
    <person id="ped124" type="ped_pedestrian" depart="280.89">
        <personTrip from="472552791#0" to="1075560829" walkFactor="0.75"/>
    </person>
    <person id="ped126" type="ped_pedestrian" depart="285.42">
        <personTrip from="699308696" to="696650131#3" walkFactor="0.75"/>
    </person>
    <person id="ped129" type="ped_pedestrian" depart="292.21">
        <personTrip from="699635171#0" to="696650157#0" walkFactor="0.75"/>
    </person>
    <person id="ped130" type="ped_pedestrian" depart="294.48">
        <personTrip from="-699376440#1" to="-699376428#1" walkFactor="0.75"/>
    </person>
    <person id="ped132" type="ped_pedestrian" depart="299.01">
        <personTrip from="-699635167" to="-699214139" walkFactor="0.75"/>
    </person>
    <person id="ped133" type="ped_pedestrian" depart="301.28">
        <personTrip from="699530923" to="82905060#3" walkFactor="0.75"/>
    </person>
    <person id="ped134" type="ped_pedestrian" depart="303.54">
        <personTrip from="379863828#1" to="698167551" walkFactor="0.75"/>
    </person>
    <person id="ped135" type="ped_pedestrian" depart="305.81">
        <personTrip from="-699384226#1" to="953699280#0" walkFactor="0.75"/>
    </person>
    <person id="ped136" type="ped_pedestrian" depart="308.07">
        <personTrip from="702956816#0" to="954599928#1" walkFactor="0.75"/>
    </person>
    <person id="ped144" type="ped_pedestrian" depart="326.19">
        <personTrip from="500828185#1" to="1290638041#1" walkFactor="0.75"/>
    </person>
    <person id="ped145" type="ped_pedestrian" depart="328.46">
        <personTrip from="699536187#3" to="-699635213#0" walkFactor="0.75"/>
    </person>
    <person id="ped146" type="ped_pedestrian" depart="330.72">
        <personTrip from="-378875703#1" to="-699536256" walkFactor="0.75"/>
    </person>
    <person id="ped148" type="ped_pedestrian" depart="335.25">
        <personTrip from="696850217#0" to="500828181#9" walkFactor="0.75"/>
    </person>
    <person id="ped149" type="ped_pedestrian" depart="337.52">
        <personTrip from="954599932#0" to="696548844#0" walkFactor="0.75"/>
    </person>
    <person id="ped150" type="ped_pedestrian" depart="339.78">
        <personTrip from="953699286#3" to="-699304621#2" walkFactor="0.75"/>
    </person>
    <person id="ped151" type="ped_pedestrian" depart="342.05">
        <personTrip from="954595409#1" to="-699536203#0" walkFactor="0.75"/>
    </person>
    <person id="ped152" type="ped_pedestrian" depart="344.31">
        <personTrip from="953883952#8" to="1049235989#3" walkFactor="0.75"/>
    </person>
    <person id="ped153" type="ped_pedestrian" depart="346.58">
        <personTrip from="-699214134#1" to="552085059#2" walkFactor="0.75"/>
    </person>
    <person id="ped154" type="ped_pedestrian" depart="348.85">
        <personTrip from="699308680" to="1316950569" walkFactor="0.75"/>
    </person>
    <person id="ped155" type="ped_pedestrian" depart="351.11">
        <personTrip from="696650143#0" to="684064521#1" walkFactor="0.75"/>
    </person>
    <person id="ped156" type="ped_pedestrian" depart="353.38">
        <personTrip from="378875703#0" to="696650156#1" walkFactor="0.75"/>
    </person>
    <person id="ped157" type="ped_pedestrian" depart="355.64">
        <personTrip from="-699635177#1" to="699308699#2" walkFactor="0.75"/>
    </person>
    <person id="ped158" type="ped_pedestrian" depart="357.91">
        <personTrip from="681784962" to="699376440#0" walkFactor="0.75"/>
    </person>
    <person id="ped159" type="ped_pedestrian" depart="360.17">
        <personTrip from="699308699#0" to="699304616#1" walkFactor="0.75"/>
    </person>
    <person id="ped160" type="ped_pedestrian" depart="362.44">
        <personTrip from="160247885#0" to="-596247088#4" walkFactor="0.75"/>
    </person>
    <person id="ped165" type="ped_pedestrian" depart="373.76">
        <personTrip from="-699304621#3" to="501177575#3" walkFactor="0.75"/>
    </person>
    <person id="ped166" type="ped_pedestrian" depart="376.03">
        <personTrip from="953699287#1" to="699305972" walkFactor="0.75"/>
    </person>
    <person id="ped169" type="ped_pedestrian" depart="382.82">
        <personTrip from="472559596#3" to="696650156#3" walkFactor="0.75"/>
    </person>
    <person id="ped170" type="ped_pedestrian" depart="385.09">
        <personTrip from="500826165#4" to="-699635175#0" walkFactor="0.75"/>
    </person>
    <person id="ped172" type="ped_pedestrian" depart="389.62">
        <personTrip from="696850209#0" to="378849580" walkFactor="0.75"/>
    </person>
    <person id="ped173" type="ped_pedestrian" depart="391.88">
        <personTrip from="699536266" to="699443748#1" walkFactor="0.75"/>
    </person>
    <person id="ped174" type="ped_pedestrian" depart="394.15">
        <personTrip from="698430314" to="-699635204" walkFactor="0.75"/>
    </person>
    <person id="ped178" type="ped_pedestrian" depart="403.21">
        <personTrip from="698159132#1" to="-1287595054" walkFactor="0.75"/>
    </person>
    <person id="ped180" type="ped_pedestrian" depart="407.74">
        <personTrip from="-699148304#1" to="501177583#2" walkFactor="0.75"/>
    </person>
    <person id="ped181" type="ped_pedestrian" depart="410.01">
        <personTrip from="-699443738" to="953883951#3" walkFactor="0.75"/>
    </person>
    <person id="ped182" type="ped_pedestrian" depart="412.27">
        <personTrip from="-699635166" to="699635223#3" walkFactor="0.75"/>
    </person>
    <person id="ped183" type="ped_pedestrian" depart="414.54">
        <personTrip from="500828184#0" to="699536260" walkFactor="0.75"/>
    </person>
    <person id="ped185" type="ped_pedestrian" depart="419.07">
        <personTrip from="696548851#1" to="953699297#0" walkFactor="0.75"/>
    </person>
    <person id="ped188" type="ped_pedestrian" depart="425.86">
        <personTrip from="699635161" to="696548850#0" walkFactor="0.75"/>
    </person>
    <person id="ped191" type="ped_pedestrian" depart="432.66">
        <personTrip from="-699635162#1" to="699059993#0" walkFactor="0.75"/>
    </person>
    <person id="ped192" type="ped_pedestrian" depart="434.92">
        <personTrip from="699443712#1" to="684968881" walkFactor="0.75"/>
    </person>
    <person id="ped193" type="ped_pedestrian" depart="437.19">
        <personTrip from="696650156#5" to="1064344703" walkFactor="0.75"/>
    </person>
    <person id="ped194" type="ped_pedestrian" depart="439.45">
        <personTrip from="-699635213#2" to="249660500#2" walkFactor="0.75"/>
    </person>
    <person id="ped195" type="ped_pedestrian" depart="441.72">
        <personTrip from="681796248" to="-699391000#1" walkFactor="0.75"/>
    </person>
    <person id="ped196" type="ped_pedestrian" depart="443.99">
        <personTrip from="-699536267" to="699308679#2" walkFactor="0.75"/>
    </person>
    <person id="ped198" type="ped_pedestrian" depart="448.52">
        <personTrip from="379863828#4" to="696548846#6" walkFactor="0.75"/>
    </person>
    <person id="ped199" type="ped_pedestrian" depart="450.78">
        <personTrip from="696548845#1" to="699308681#1" walkFactor="0.75"/>
    </person>
    <person id="ped203" type="ped_pedestrian" depart="459.84">
        <personTrip from="699635222" to="953883948#0" walkFactor="0.75"/>
    </person>
    <person id="ped206" type="ped_pedestrian" depart="466.64">
        <personTrip from="1259366876#0" to="699305975#1" walkFactor="0.75"/>
    </person>
    <person id="ped208" type="ped_pedestrian" depart="471.17">
        <personTrip from="501177575#2" to="-699376429#0" walkFactor="0.75"/>
    </person>
    <person id="ped211" type="ped_pedestrian" depart="477.96">
        <personTrip from="-501177576#15" to="472552818#2" walkFactor="0.75"/>
    </person>
    <person id="ped213" type="ped_pedestrian" depart="482.49">
        <personTrip from="699391003#2" to="472552818#2" walkFactor="0.75"/>
    </person>
    <person id="ped214" type="ped_pedestrian" depart="484.76">
        <personTrip from="699376440#1" to="699635184#8" walkFactor="0.75"/>
    </person>
    <person id="ped216" type="ped_pedestrian" depart="489.29">
        <personTrip from="697549037#1" to="699536209#0" walkFactor="0.75"/>
    </person>
    <person id="ped218" type="ped_pedestrian" depart="493.82">
        <personTrip from="953699296#4" to="-699538714#10" walkFactor="0.75"/>
    </person>
    <person id="ped220" type="ped_pedestrian" depart="498.35">
        <personTrip from="-699304620#1" to="699304612" walkFactor="0.75"/>
    </person>
    <person id="ped221" type="ped_pedestrian" depart="500.62">
        <personTrip from="684162599#3" to="-699635184#4" walkFactor="0.75"/>
    </person>
    <person id="ped223" type="ped_pedestrian" depart="505.15">
        <personTrip from="-699443720#0" to="697914904#0" walkFactor="0.75"/>
    </person>
    <person id="ped224" type="ped_pedestrian" depart="507.41">
        <personTrip from="699376427" to="-699304619" walkFactor="0.75"/>
    </person>
    <person id="ped225" type="ped_pedestrian" depart="509.68">
        <personTrip from="699536271" to="953915676#1" walkFactor="0.75"/>
    </person>
    <person id="ped227" type="ped_pedestrian" depart="514.21">
        <personTrip from="953883951#0" to="500828181#2" walkFactor="0.75"/>
    </person>
    <person id="ped229" type="ped_pedestrian" depart="518.74">
        <personTrip from="699147647" to="699037764#0" walkFactor="0.75"/>
    </person>
    <person id="ped230" type="ped_pedestrian" depart="521.00">
        <personTrip from="-699147652" to="699536187#0" walkFactor="0.75"/>
    </person>
    <person id="ped231" type="ped_pedestrian" depart="523.27">
        <personTrip from="699635213#1" to="696850222#1" walkFactor="0.75"/>
    </person>
    <person id="ped232" type="ped_pedestrian" depart="525.53">
        <personTrip from="-699304607#0" to="954834405" walkFactor="0.75"/>
    </person>
    <person id="ped234" type="ped_pedestrian" depart="530.06">
        <personTrip from="472559591" to="469036604#1" walkFactor="0.75"/>
    </person>
    <person id="ped235" type="ped_pedestrian" depart="532.33">
        <personTrip from="699635211#2" to="699635169" walkFactor="0.75"/>
    </person>
    <person id="ped236" type="ped_pedestrian" depart="534.59">
        <personTrip from="-699148302#0" to="953883952#6" walkFactor="0.75"/>
    </person>
    <person id="ped237" type="ped_pedestrian" depart="536.86">
        <personTrip from="696850212#2" to="699635180" walkFactor="0.75"/>
    </person>
    <person id="ped238" type="ped_pedestrian" depart="539.12">
        <personTrip from="699304608" to="552085060#3" walkFactor="0.75"/>
    </person>
    <person id="ped239" type="ped_pedestrian" depart="541.39">
        <personTrip from="699308685#1" to="953915678#0" walkFactor="0.75"/>
    </person>
    <person id="ped240" type="ped_pedestrian" depart="543.66">
        <personTrip from="-699635210" to="699538714#2" walkFactor="0.75"/>
    </person>
    <person id="ped242" type="ped_pedestrian" depart="548.19">
        <personTrip from="-699635205#0" to="699637050#0" walkFactor="0.75"/>
    </person>
    <person id="ped243" type="ped_pedestrian" depart="550.45">
        <personTrip from="699635162#1" to="-699037766#0" walkFactor="0.75"/>
    </person>
    <person id="ped244" type="ped_pedestrian" depart="552.72">
        <personTrip from="500828206" to="698159133#0" walkFactor="0.75"/>
    </person>
    <person id="ped246" type="ped_pedestrian" depart="557.25">
        <personTrip from="699635214#1" to="-699536219#3" walkFactor="0.75"/>
    </person>
    <person id="ped247" type="ped_pedestrian" depart="559.51">
        <personTrip from="-699536219#1" to="699536250" walkFactor="0.75"/>
    </person>
    <person id="ped249" type="ped_pedestrian" depart="564.04">
        <personTrip from="699214145" to="1064344707" walkFactor="0.75"/>
    </person>
    <person id="ped251" type="ped_pedestrian" depart="568.57">
        <personTrip from="699147647" to="699146809#4" walkFactor="0.75"/>
    </person>
    <person id="ped253" type="ped_pedestrian" depart="573.10">
        <personTrip from="-699037769#3" to="-699635193#2" walkFactor="0.75"/>
    </person>
    <person id="ped257" type="ped_pedestrian" depart="582.16">
        <personTrip from="699308704" to="306371084#1" walkFactor="0.75"/>
    </person>
    <person id="ped263" type="ped_pedestrian" depart="595.76">
        <personTrip from="954599927#8" to="684968891#2" walkFactor="0.75"/>
    </person>
    <person id="ped266" type="ped_pedestrian" depart="602.55">
        <personTrip from="681784955" to="1064344702" walkFactor="0.75"/>
    </person>
    <person id="ped267" type="ped_pedestrian" depart="604.82">
        <personTrip from="954599927#2" to="696650131#8" walkFactor="0.75"/>
    </person>
    <person id="ped268" type="ped_pedestrian" depart="607.08">
        <personTrip from="699214134#0" to="-699376426#0" walkFactor="0.75"/>
    </person>
    <person id="ped270" type="ped_pedestrian" depart="611.61">
        <personTrip from="-699531049#1" to="-501177583#6" walkFactor="0.75"/>
    </person>
    <person id="ped272" type="ped_pedestrian" depart="616.14">
        <personTrip from="699538714#2" to="500828182#10" walkFactor="0.75"/>
    </person>
    <person id="ped273" type="ped_pedestrian" depart="618.41">
        <personTrip from="-596247088#4" to="699037768" walkFactor="0.75"/>
    </person>
    <person id="ped275" type="ped_pedestrian" depart="622.94">
        <personTrip from="684162599#0" to="1289027428#2" walkFactor="0.75"/>
    </person>
    <person id="ped277" type="ped_pedestrian" depart="627.47">
        <personTrip from="699443709" to="697914902#2" walkFactor="0.75"/>
    </person>
    <person id="ped281" type="ped_pedestrian" depart="636.53">
        <personTrip from="696650154#6" to="698159132#1" walkFactor="0.75"/>
    </person>
    <person id="ped282" type="ped_pedestrian" depart="638.79">
        <personTrip from="699308694#3" to="953699296#2" walkFactor="0.75"/>
    </person>
    <person id="ped283" type="ped_pedestrian" depart="641.06">
        <personTrip from="-699536201#2" to="-699635170#1" walkFactor="0.75"/>
    </person>
    <person id="ped286" type="ped_pedestrian" depart="647.86">
        <personTrip from="696548849#3" to="1259366880" walkFactor="0.75"/>
    </person>
    <person id="ped287" type="ped_pedestrian" depart="650.12">
        <personTrip from="-699536267" to="699308694#4" walkFactor="0.75"/>
    </person>
    <person id="ped289" type="ped_pedestrian" depart="654.65">
        <personTrip from="699146805#0" to="950213516#0" walkFactor="0.75"/>
    </person>
    <person id="ped291" type="ped_pedestrian" depart="659.18">
        <personTrip from="698164870#3" to="953699283#1" walkFactor="0.75"/>
    </person>
    <person id="ped292" type="ped_pedestrian" depart="661.45">
        <personTrip from="472552794#0" to="696548847#1" walkFactor="0.75"/>
    </person>
    <person id="ped293" type="ped_pedestrian" depart="663.71">
        <personTrip from="696850223#1" to="940217616#1" walkFactor="0.75"/>
    </person>
    <person id="ped295" type="ped_pedestrian" depart="668.24">
        <personTrip from="699376429#2" to="696650152#1" walkFactor="0.75"/>
    </person>
    <person id="ped297" type="ped_pedestrian" depart="672.77">
        <personTrip from="699146807" to="699308685#1" walkFactor="0.75"/>
    </person>
    <person id="ped300" type="ped_pedestrian" depart="679.57">
        <personTrip from="-500826135#4" to="552085057#14" walkFactor="0.75"/>
    </person>
    <person id="ped301" type="ped_pedestrian" depart="681.83">
        <personTrip from="1060100492#0" to="-926057875#1" walkFactor="0.75"/>
    </person>
    <person id="ped302" type="ped_pedestrian" depart="684.10">
        <personTrip from="-699037766#0" to="953909441" walkFactor="0.75"/>
    </person>
    <person id="ped303" type="ped_pedestrian" depart="686.36">
        <personTrip from="699635175#0" to="696650154#7" walkFactor="0.75"/>
    </person>
    <person id="ped306" type="ped_pedestrian" depart="693.16">
        <personTrip from="501177576#2" to="699148301#1" walkFactor="0.75"/>
    </person>
    <person id="ped307" type="ped_pedestrian" depart="695.43">
        <personTrip from="940217623#1" to="-699536219#1" walkFactor="0.75"/>
    </person>
    <person id="ped308" type="ped_pedestrian" depart="697.69">
        <personTrip from="696548845#4" to="699059989" walkFactor="0.75"/>
    </person>
    <person id="ped309" type="ped_pedestrian" depart="699.96">
        <personTrip from="59254860#0" to="-699146805#3" walkFactor="0.75"/>
    </person>