<?xml version="1.0" encoding="UTF-8"?>

<!-- generated on 2025-03-27 15:25:21.351542 by randomTrips.py v1_20_0+0000-96efa4d36d6
<configuration>
    <net-file value="osm.net.xml.gz"/>
    <output-trip-file value="osm.passenger.trips.xml"/>
    <route-file value="osm.passenger.rou.xml"/>
    <prefix value="veh"/>
    <trip-attributes value="departLane=&quot;best&quot; departSpeed=&quot;max&quot;  departPos=&quot;random_free&quot;"/>
    <vehicle-class value="passenger"/>
    <lanes value="True"/>
    <fringe-factor value="5"/>
    <allow-fringe.min-length value="1000.0"/>
    <via-edge-types value="highway.motorway,highway.motorway_link,highway.trunk_link,highway.primary_link,highway.secondary_link,highway.tertiary_link"/>
    <min-distance value="300.0"/>
    <min-distance.fringe value="10.0"/>
    <remove-loops value="True"/>
    <validate value="True"/>
    <insertion-density value="12.0"/>
</configuration>
-->

<!-- generated on 2025-03-27 15:25:20 by Eclipse SUMO duarouter Version 1.20.0
<configuration xmlns:xsi="http://www.w3.org/2001/XMLSchema-instance" xsi:noNamespaceSchemaLocation="http://sumo.dlr.de/xsd/duarouterConfiguration.xsd">

    <input>
        <net-file value="osm.net.xml.gz"/>
        <route-files value="osm.passenger.trips.xml"/>
    </input>

    <output>
        <output-file value="osm.passenger.trips.xml.tmp"/>
        <alternatives-output value="NUL"/>
        <write-trips value="true"/>
    </output>

    <processing>
        <remove-loops value="true"/>
    </processing>

    <time>
        <begin value="0.0"/>
        <end value="3600.0"/>
    </time>

    <report>
        <no-warnings value="true"/>
        <ignore-errors value="true"/>
        <no-step-log value="true"/>
    </report>

</configuration>
-->

<routes xmlns:xsi="http://www.w3.org/2001/XMLSchema-instance" xsi:noNamespaceSchemaLocation="http://sumo.dlr.de/xsd/routes_file.xsd">
    <vType id="veh_passenger" vClass="passenger"/>
    <trip id="veh0" type="veh_passenger" depart="0.00" departLane="best" departPos="random_free" departSpeed="max" from="381662629#2" to="-156599622#31"/>
    <trip id="veh1" type="veh_passenger" depart="0.89" departLane="best" departPos="random_free" departSpeed="max" from="-554923672#0" to="-468684045#0"/>
    <trip id="veh2" type="veh_passenger" depart="1.78" departLane="best" departPos="random_free" departSpeed="max" from="497330606#1" to="-38657768"/>
    <trip id="veh3" type="veh_passenger" depart="2.67" departLane="best" departPos="random_free" departSpeed="max" from="156329888" to="-156599655"/>
    <trip id="veh4" type="veh_passenger" depart="3.55" departLane="best" departPos="random_free" departSpeed="max" from="38609685#7" to="-318729197#3"/>
    <trip id="veh5" type="veh_passenger" depart="4.44" departLane="best" departPos="random_free" departSpeed="max" from="-156599622#4" to="381695290"/>
    <trip id="veh6" type="veh_passenger" depart="5.33" departLane="best" departPos="random_free" departSpeed="max" from="381676474#3" to="361753490#0"/>
    <trip id="veh7" type="veh_passenger" depart="6.22" departLane="best" departPos="random_free" departSpeed="max" from="-391671348#1" to="-37895049#8"/>
    <trip id="veh8" type="veh_passenger" depart="7.11" departLane="best" departPos="random_free" departSpeed="max" from="561944179" to="-156331313#1"/>
    <trip id="veh9" type="veh_passenger" depart="8.00" departLane="best" departPos="random_free" departSpeed="max" from="554923671#2" to="472039970"/>
    <trip id="veh10" type="veh_passenger" depart="8.89" departLane="best" departPos="random_free" departSpeed="max" from="-81016194#23" to="379863863#4"/>
    <trip id="veh11" type="veh_passenger" depart="9.77" departLane="best" departPos="random_free" departSpeed="max" from="82626305#1" to="-81016194#6"/>
    <trip id="veh12" type="veh_passenger" depart="10.66" departLane="best" departPos="random_free" departSpeed="max" from="682416256#2" to="379077655#0"/>
    <trip id="veh13" type="veh_passenger" depart="11.55" departLane="best" departPos="random_free" departSpeed="max" from="554923672#3" to="502804523#3"/>
    <trip id="veh14" type="veh_passenger" depart="12.44" departLane="best" departPos="random_free" departSpeed="max" from="318729242#12" to="-82626377#3"/>
    <trip id="veh15" type="veh_passenger" depart="13.33" departLane="best" departPos="random_free" departSpeed="max" from="-82626317#4" to="-378849587"/>
    <trip id="veh17" type="veh_passenger" depart="15.10" departLane="best" departPos="random_free" departSpeed="max" from="682918006#0" to="378886811#6"/>
    <trip id="veh18" type="veh_passenger" depart="15.99" departLane="best" departPos="random_free" departSpeed="max" from="472039968#3" to="-165477485#0"/>
    <trip id="veh19" type="veh_passenger" depart="16.88" departLane="best" departPos="random_free" departSpeed="max" from="468684045#3" to="-596247089#0"/>
    <trip id="veh20" type="veh_passenger" depart="17.77" departLane="best" departPos="random_free" departSpeed="max" from="-318729235#1" to="-472039973#6"/>
    <trip id="veh21" type="veh_passenger" depart="18.66" departLane="best" departPos="random_free" departSpeed="max" from="-378849581#5" to="-562497121#5"/>
    <trip id="veh22" type="veh_passenger" depart="19.55" departLane="best" departPos="random_free" departSpeed="max" from="381662624" to="-82626304#0"/>
    <trip id="veh23" type="veh_passenger" depart="20.44" departLane="best" departPos="random_free" departSpeed="max" from="-82586459#5" to="-38609685#5"/>
    <trip id="veh24" type="veh_passenger" depart="21.32" departLane="best" departPos="random_free" departSpeed="max" from="554923670#17" to="815630761#0"/>
    <trip id="veh25" type="veh_passenger" depart="22.21" departLane="best" departPos="random_free" departSpeed="max" from="381676464#0" to="379077699"/>
    <trip id="veh26" type="veh_passenger" depart="23.10" departLane="best" departPos="random_free" departSpeed="max" from="381200935#0" to="502804523#1"/>
    <trip id="veh27" type="veh_passenger" depart="23.99" departLane="best" departPos="random_free" departSpeed="max" from="-379863868" to="-82626353#3"/>
    <trip id="veh28" type="veh_passenger" depart="24.88" departLane="best" departPos="random_free" departSpeed="max" from="82905076#1" to="381676459#2"/>
    <trip id="veh29" type="veh_passenger" depart="25.77" departLane="best" departPos="random_free" departSpeed="max" from="378849580" to="468684045#1"/>
    <trip id="veh30" type="veh_passenger" depart="26.66" departLane="best" departPos="random_free" departSpeed="max" from="-629778311#0" to="554922643"/>
    <trip id="veh31" type="veh_passenger" depart="27.54" departLane="best" departPos="random_free" departSpeed="max" from="468684045#6" to="-156599658#5"/>
    <trip id="veh32" type="veh_passenger" depart="28.43" departLane="best" departPos="random_free" departSpeed="max" from="-685069352#3" to="-554923670#18"/>
    <trip id="veh33" type="veh_passenger" depart="29.32" departLane="best" departPos="random_free" departSpeed="max" from="38609390#1" to="82209418#13"/>
    <trip id="veh34" type="veh_passenger" depart="30.21" departLane="best" departPos="random_free" departSpeed="max" from="684774918#0" to="-807675777"/>
    <trip id="veh35" type="veh_passenger" depart="31.10" departLane="best" departPos="random_free" departSpeed="max" from="381695260#7" to="82905058#0"/>
    <trip id="veh36" type="veh_passenger" depart="31.99" departLane="best" departPos="random_free" departSpeed="max" from="81016194#0" to="165477483#2"/>
    <trip id="veh37" type="veh_passenger" depart="32.88" departLane="best" departPos="random_free" departSpeed="max" from="554923670#15" to="-502804524#3"/>
    <trip id="veh38" type="veh_passenger" depart="33.76" departLane="best" departPos="random_free" departSpeed="max" from="378869313#1" to="-554923670#11"/>
    <trip id="veh39" type="veh_passenger" depart="34.65" departLane="best" departPos="random_free" departSpeed="max" from="378886819#4" to="807675778#0"/>
    <trip id="veh40" type="veh_passenger" depart="35.54" departLane="best" departPos="random_free" departSpeed="max" from="-82905031#2" to="-393913816"/>
    <trip id="veh41" type="veh_passenger" depart="36.43" departLane="best" departPos="random_free" departSpeed="max" from="929197046#0" to="318729231"/>
    <trip id="veh42" type="veh_passenger" depart="37.32" departLane="best" departPos="random_free" departSpeed="max" from="-318729270" to="-165477488#0"/>
    <trip id="veh43" type="veh_passenger" depart="38.21" departLane="best" departPos="random_free" departSpeed="max" from="-378875686#2" to="-381662617#0"/>
    <trip id="veh44" type="veh_passenger" depart="39.10" departLane="best" departPos="random_free" departSpeed="max" from="554923670#11" to="-156599622#10"/>
    <trip id="veh45" type="veh_passenger" depart="39.98" departLane="best" departPos="random_free" departSpeed="max" from="-285183328" to="-82626360#3"/>
    <trip id="veh46" type="veh_passenger" depart="40.87" departLane="best" departPos="random_free" departSpeed="max" from="86157949" to="318729242#18"/>
    <trip id="veh47" type="veh_passenger" depart="41.76" departLane="best" departPos="random_free" departSpeed="max" from="82626350" to="684162597#2"/>
    <trip id="veh48" type="veh_passenger" depart="42.65" departLane="best" departPos="random_free" departSpeed="max" from="156599622#10" to="493199549#1"/>
    <trip id="veh49" type="veh_passenger" depart="43.54" departLane="best" departPos="random_free" departSpeed="max" from="-554923670#17" to="-381676461#0"/>
    <trip id="veh50" type="veh_passenger" depart="44.43" departLane="best" departPos="random_free" departSpeed="max" from="378875688#1" to="156599622#29"/>
    <trip id="veh51" type="veh_passenger" depart="45.31" departLane="best" departPos="random_free" departSpeed="max" from="-156603792#3" to="82626307#4"/>
    <trip id="veh53" type="veh_passenger" depart="47.09" departLane="best" departPos="random_free" departSpeed="max" from="-286266778#9" to="-381676454#2"/>
    <trip id="veh54" type="veh_passenger" depart="47.98" departLane="best" departPos="random_free" departSpeed="max" from="808343395#3" to="684772781#3"/>
    <trip id="veh55" type="veh_passenger" depart="48.87" departLane="best" departPos="random_free" departSpeed="max" from="60819380#6" to="381676457"/>
    <trip id="veh56" type="veh_passenger" depart="49.76" departLane="best" departPos="random_free" departSpeed="max" from="379077652#2" to="-379077697"/>
    <trip id="veh57" type="veh_passenger" depart="50.65" departLane="best" departPos="random_free" departSpeed="max" from="509710161#1" to="318729270"/>
    <trip id="veh58" type="veh_passenger" depart="51.53" departLane="best" departPos="random_free" departSpeed="max" from="509710169#1" to="318729242#3"/>
    <trip id="veh59" type="veh_passenger" depart="52.42" departLane="best" departPos="random_free" departSpeed="max" from="-1031883781" to="-808343395#2"/>
    <trip id="veh60" type="veh_passenger" depart="53.31" departLane="best" departPos="random_free" departSpeed="max" from="-156599622#22" to="81163820#1"/>
    <trip id="veh61" type="veh_passenger" depart="54.20" departLane="best" departPos="random_free" departSpeed="max" from="684774918#3" to="607137801"/>
    <trip id="veh62" type="veh_passenger" depart="55.09" departLane="best" departPos="random_free" departSpeed="max" from="682416266#2" to="-249660500#0"/>
    <trip id="veh63" type="veh_passenger" depart="55.98" departLane="best" departPos="random_free" departSpeed="max" from="684774918#2" to="82586450#4"/>
    <trip id="veh64" type="veh_passenger" depart="56.87" departLane="best" departPos="random_free" departSpeed="max" from="-318729243" to="253020207#4"/>
    <trip id="veh65" type="veh_passenger" depart="57.75" departLane="best" departPos="random_free" departSpeed="max" from="-286266778#6" to="509710165#2"/>
    <trip id="veh66" type="veh_passenger" depart="58.64" departLane="best" departPos="random_free" departSpeed="max" from="509710165#1" to="-378886824#4"/>
    <trip id="veh67" type="veh_passenger" depart="59.53" departLane="best" departPos="random_free" departSpeed="max" from="-187927721#8" to="378310192#4"/>
    <trip id="veh68" type="veh_passenger" depart="60.42" departLane="best" departPos="random_free" departSpeed="max" from="-554923670#15" to="684774918#1"/>
    <trip id="veh69" type="veh_passenger" depart="61.31" departLane="best" departPos="random_free" departSpeed="max" from="156331312#4" to="-38657754#0"/>
    <trip id="veh70" type="veh_passenger" depart="62.20" departLane="best" departPos="random_free" departSpeed="max" from="318729242#18" to="502804523#3"/>
    <trip id="veh71" type="veh_passenger" depart="63.09" departLane="best" departPos="random_free" departSpeed="max" from="-381695284" to="699769335#1"/>
    <trip id="veh72" type="veh_passenger" depart="63.97" departLane="best" departPos="random_free" departSpeed="max" from="839856058#0" to="381695260#7"/>
    <trip id="veh73" type="veh_passenger" depart="64.86" departLane="best" departPos="random_free" departSpeed="max" from="156599622#25" to="318729241#10"/>
    <trip id="veh74" type="veh_passenger" depart="65.75" departLane="best" departPos="random_free" departSpeed="max" from="-378875724#0" to="-468684045#0"/>
    <trip id="veh75" type="veh_passenger" depart="66.64" departLane="best" departPos="random_free" departSpeed="max" from="81016194#18" to="-37895049#3"/>
    <trip id="veh76" type="veh_passenger" depart="67.53" departLane="best" departPos="random_free" departSpeed="max" from="-469350706#0" to="-427669585"/>
    <trip id="veh77" type="veh_passenger" depart="68.42" departLane="best" departPos="random_free" departSpeed="max" from="-318577565#5" to="381662623#2"/>
    <trip id="veh78" type="veh_passenger" depart="69.31" departLane="best" departPos="random_free" departSpeed="max" from="468684045#5" to="808171412"/>
    <trip id="veh79" type="veh_passenger" depart="70.19" departLane="best" departPos="random_free" departSpeed="max" from="682435868#6" to="-318577565#0"/>
    <trip id="veh80" type="veh_passenger" depart="71.08" departLane="best" departPos="random_free" departSpeed="max" from="-473480345" to="38609562#0"/>
    <trip id="veh81" type="veh_passenger" depart="71.97" departLane="best" departPos="random_free" departSpeed="max" from="38609585#0" to="37895049#2"/>
    <trip id="veh82" type="veh_passenger" depart="72.86" departLane="best" departPos="random_free" departSpeed="max" from="81373582#5" to="-378875720"/>
    <trip id="veh83" type="veh_passenger" depart="73.75" departLane="best" departPos="random_free" departSpeed="max" from="-187927721#0" to="554923670#18"/>
    <trip id="veh84" type="veh_passenger" depart="74.64" departLane="best" departPos="random_free" departSpeed="max" from="554923802#0" to="381695270#0"/>
    <trip id="veh85" type="veh_passenger" depart="75.52" departLane="best" departPos="random_free" departSpeed="max" from="-361922207#1" to="156599622#23"/>
    <trip id="veh86" type="veh_passenger" depart="76.41" departLane="best" departPos="random_free" departSpeed="max" from="156331313#1" to="165477524#5"/>
    <trip id="veh87" type="veh_passenger" depart="77.30" departLane="best" departPos="random_free" departSpeed="max" from="493195996#2" to="38609585#8"/>
    <trip id="veh88" type="veh_passenger" depart="78.19" departLane="best" departPos="random_free" departSpeed="max" from="-82905031#2" to="-378849586#1"/>
    <trip id="veh89" type="veh_passenger" depart="79.08" departLane="best" departPos="random_free" departSpeed="max" from="-82905046#3" to="81163816#1"/>
    <trip id="veh90" type="veh_passenger" depart="79.97" departLane="best" departPos="random_free" departSpeed="max" from="682918006#0" to="502804525#1"/>
    <trip id="veh91" type="veh_passenger" depart="80.86" departLane="best" departPos="random_free" departSpeed="max" from="-381676480" to="156603792#4"/>
    <trip id="veh92" type="veh_passenger" depart="81.74" departLane="best" departPos="random_free" departSpeed="max" from="156329888" to="-585392829"/>
    <trip id="veh93" type="veh_passenger" depart="82.63" departLane="best" departPos="random_free" departSpeed="max" from="-509379756#1" to="-81016194#9"/>
    <trip id="veh94" type="veh_passenger" depart="83.52" departLane="best" departPos="random_free" departSpeed="max" from="-156599622#4" to="684162597#3"/>
    <trip id="veh95" type="veh_passenger" depart="84.41" departLane="best" departPos="random_free" departSpeed="max" from="-361753485#6" to="-165477491#4"/>
    <trip id="veh96" type="veh_passenger" depart="85.30" departLane="best" departPos="random_free" departSpeed="max" from="-929197057#1" to="609842502#2"/>
    <trip id="veh97" type="veh_passenger" depart="86.19" departLane="best" departPos="random_free" departSpeed="max" from="82626335#0" to="81163819#1"/>
    <trip id="veh98" type="veh_passenger" depart="87.08" departLane="best" departPos="random_free" departSpeed="max" from="682416258#0" to="-381200936#1"/>
    <trip id="veh99" type="veh_passenger" depart="87.96" departLane="best" departPos="random_free" departSpeed="max" from="-249663664#1" to="-38657754#0"/>
    <trip id="veh100" type="veh_passenger" depart="88.85" departLane="best" departPos="random_free" departSpeed="max" from="-82905045#5" to="249660500#1"/>
    <trip id="veh101" type="veh_passenger" depart="89.74" departLane="best" departPos="random_free" departSpeed="max" from="-82626318#2" to="-82905071#1"/>
    <trip id="veh102" type="veh_passenger" depart="90.63" departLane="best" departPos="random_free" departSpeed="max" from="156603793#3" to="156599622#11"/>
    <trip id="veh103" type="veh_passenger" depart="91.52" departLane="best" departPos="random_free" departSpeed="max" from="82626305#1" to="916121938#1"/>
    <trip id="veh104" type="veh_passenger" depart="92.41" departLane="best" departPos="random_free" departSpeed="max" from="378310192#0" to="493195997"/>
    <trip id="veh105" type="veh_passenger" depart="93.30" departLane="best" departPos="random_free" departSpeed="max" from="-379077657" to="-629778311#1"/>
    <trip id="veh106" type="veh_passenger" depart="94.18" departLane="best" departPos="random_free" departSpeed="max" from="82626332#2" to="378886819#4"/>
    <trip id="veh107" type="veh_passenger" depart="95.07" departLane="best" departPos="random_free" departSpeed="max" from="318729242#6" to="509710146#3"/>
    <trip id="veh108" type="veh_passenger" depart="95.96" departLane="best" departPos="random_free" departSpeed="max" from="318577565#1" to="682435868#4"/>
    <trip id="veh109" type="veh_passenger" depart="96.85" departLane="best" departPos="random_free" departSpeed="max" from="-379077689#2" to="-82626320#4"/>
    <trip id="veh110" type="veh_passenger" depart="97.74" departLane="best" departPos="random_free" departSpeed="max" from="318729235#2" to="-381695260#1"/>
    <trip id="veh111" type="veh_passenger" depart="98.63" departLane="best" departPos="random_free" departSpeed="max" from="-37895049#10" to="38609685#4"/>
    <trip id="veh112" type="veh_passenger" depart="99.51" departLane="best" departPos="random_free" departSpeed="max" from="-472039977#2" to="-378886810#6"/>
    <trip id="veh113" type="veh_passenger" depart="100.40" departLane="best" departPos="random_free" departSpeed="max" from="686527169" to="-502804524#3"/>
    <trip id="veh115" type="veh_passenger" depart="102.18" departLane="best" departPos="random_free" departSpeed="max" from="1336761919" to="378886823#6"/>
    <trip id="veh116" type="veh_passenger" depart="103.07" departLane="best" departPos="random_free" departSpeed="max" from="318729235#0" to="815177641#1"/>
    <trip id="veh117" type="veh_passenger" depart="103.96" departLane="best" departPos="random_free" departSpeed="max" from="381695287#4" to="493195997"/>
    <trip id="veh118" type="veh_passenger" depart="104.85" departLane="best" departPos="random_free" departSpeed="max" from="-473480345" to="-82905058#1"/>
    <trip id="veh119" type="veh_passenger" depart="105.73" departLane="best" departPos="random_free" departSpeed="max" from="38609562#3" to="-682416263#2"/>
    <trip id="veh120" type="veh_passenger" depart="106.62" departLane="best" departPos="random_free" departSpeed="max" from="685069352#4" to="-509710161#4"/>
    <trip id="veh121" type="veh_passenger" depart="107.51" departLane="best" departPos="random_free" departSpeed="max" from="-318705784" to="156603805#4"/>
    <trip id="veh122" type="veh_passenger" depart="108.40" departLane="best" departPos="random_free" departSpeed="max" from="-929197057#0" to="916121938#1"/>
    <trip id="veh123" type="veh_passenger" depart="109.29" departLane="best" departPos="random_free" departSpeed="max" from="-318705785" to="-38657754#0"/>
    <trip id="veh124" type="veh_passenger" depart="110.18" departLane="best" departPos="random_free" departSpeed="max" from="-554923670#15" to="-815177638"/>
    <trip id="veh125" type="veh_passenger" depart="111.07" departLane="best" departPos="random_free" departSpeed="max" from="684774918#8" to="685069349"/>
    <trip id="veh126" type="veh_passenger" depart="111.95" departLane="best" departPos="random_free" departSpeed="max" from="-82586459#3" to="-379866270#0"/>
    <trip id="veh127" type="veh_passenger" depart="112.84" departLane="best" departPos="random_free" departSpeed="max" from="59254860#4" to="472039977#2"/>
    <trip id="veh128" type="veh_passenger" depart="113.73" departLane="best" departPos="random_free" departSpeed="max" from="381695260#10" to="-156331315#3"/>
    <trip id="veh130" type="veh_passenger" depart="115.51" departLane="best" departPos="random_free" departSpeed="max" from="381695287#0" to="82209410#1"/>
    <trip id="veh131" type="veh_passenger" depart="116.40" departLane="best" departPos="random_free" departSpeed="max" from="-378919990#0" to="-378875721#0"/>
    <trip id="veh132" type="veh_passenger" depart="117.29" departLane="best" departPos="random_free" departSpeed="max" from="-378869331#5" to="378869316"/>
    <trip id="veh133" type="veh_passenger" depart="118.17" departLane="best" departPos="random_free" departSpeed="max" from="-554923670#5" to="379077657"/>
    <trip id="veh134" type="veh_passenger" depart="119.06" departLane="best" departPos="random_free" departSpeed="max" from="472073229#6" to="-38609562#2"/>
    <trip id="veh135" type="veh_passenger" depart="119.95" departLane="best" departPos="random_free" departSpeed="max" from="381662621#0" to="-554923670#12"/>
    <trip id="veh136" type="veh_passenger" depart="120.84" departLane="best" departPos="random_free" departSpeed="max" from="253020205#2" to="808171401"/>
    <trip id="veh137" type="veh_passenger" depart="121.73" departLane="best" departPos="random_free" departSpeed="max" from="156331313#1" to="-562497121#0"/>
    <trip id="veh138" type="veh_passenger" depart="122.62" departLane="best" departPos="random_free" departSpeed="max" from="-1287596359" to="514652459#2"/>
    <trip id="veh139" type="veh_passenger" depart="123.51" departLane="best" departPos="random_free" departSpeed="max" from="381662626#3" to="-554923670#10"/>
    <trip id="veh140" type="veh_passenger" depart="124.39" departLane="best" departPos="random_free" departSpeed="max" from="502804523#5" to="378849586#0"/>
    <trip id="veh141" type="veh_passenger" depart="125.28" departLane="best" departPos="random_free" departSpeed="max" from="156599622#10" to="-156331320#0"/>
    <trip id="veh142" type="veh_passenger" depart="126.17" departLane="best" departPos="random_free" departSpeed="max" from="318729197#1" to="-685069352#1"/>
    <trip id="veh143" type="veh_passenger" depart="127.06" departLane="best" departPos="random_free" departSpeed="max" from="807926108#1" to="361922207#1"/>
    <trip id="veh144" type="veh_passenger" depart="127.95" departLane="best" departPos="random_free" departSpeed="max" from="59254860#6" to="378886821#4"/>
    <trip id="veh145" type="veh_passenger" depart="128.84" departLane="best" departPos="random_free" departSpeed="max" from="-379073005#1" to="-378886823#5"/>
    <trip id="veh146" type="veh_passenger" depart="129.72" departLane="best" departPos="random_free" departSpeed="max" from="-682416271#0" to="807905763"/>
    <trip id="veh147" type="veh_passenger" depart="130.61" departLane="best" departPos="random_free" departSpeed="max" from="554923670#17" to="684162597#2"/>
    <trip id="veh148" type="veh_passenger" depart="131.50" departLane="best" departPos="random_free" departSpeed="max" from="699801380#3" to="-38609685#7"/>
    <trip id="veh149" type="veh_passenger" depart="132.39" departLane="best" departPos="random_free" departSpeed="max" from="-509379756#0" to="378869331#3"/>
    <trip id="veh150" type="veh_passenger" depart="133.28" departLane="best" departPos="random_free" departSpeed="max" from="509710169#3" to="-685069352#4"/>
    <trip id="veh151" type="veh_passenger" depart="134.17" departLane="best" departPos="random_free" departSpeed="max" from="-82913635#2" to="381200932#5"/>
    <trip id="veh152" type="veh_passenger" depart="135.06" departLane="best" departPos="random_free" departSpeed="max" from="-379077657" to="81175758#0"/>
    <trip id="veh153" type="veh_passenger" depart="135.94" departLane="best" departPos="random_free" departSpeed="max" from="684162595#0" to="82626405#0"/>
    <trip id="veh154" type="veh_passenger" depart="136.83" departLane="best" departPos="random_free" departSpeed="max" from="562497121#0" to="-685069351#3"/>
    <trip id="veh155" type="veh_passenger" depart="137.72" departLane="best" departPos="random_free" departSpeed="max" from="156599622#3" to="502804525#1"/>
    <trip id="veh156" type="veh_passenger" depart="138.61" departLane="best" departPos="random_free" departSpeed="max" from="808343396#0" to="81373582#3"/>
    <trip id="veh157" type="veh_passenger" depart="139.50" departLane="best" departPos="random_free" departSpeed="max" from="554923670#6" to="684162598#2"/>
    <trip id="veh158" type="veh_passenger" depart="140.39" departLane="best" departPos="random_free" departSpeed="max" from="562497121#0" to="-554923670#17"/>
    <trip id="veh159" type="veh_passenger" depart="141.28" departLane="best" departPos="random_free" departSpeed="max" from="684162598#3" to="684064528#0"/>
    <trip id="veh160" type="veh_passenger" depart="142.16" departLane="best" departPos="random_free" departSpeed="max" from="-393913113#0" to="58858258"/>
    <trip id="veh161" type="veh_passenger" depart="143.05" departLane="best" departPos="random_free" departSpeed="max" from="-156603799#3" to="-685069351#0"/>
    <trip id="veh162" type="veh_passenger" depart="143.94" departLane="best" departPos="random_free" departSpeed="max" from="554923670#16" to="-468684045#6"/>
    <trip id="veh163" type="veh_passenger" depart="144.83" departLane="best" departPos="random_free" departSpeed="max" from="-156599622#29" to="381695285#0"/>
    <trip id="veh164" type="veh_passenger" depart="145.72" departLane="best" departPos="random_free" departSpeed="max" from="807984703#1" to="684162598#2"/>
    <trip id="veh166" type="veh_passenger" depart="147.50" departLane="best" departPos="random_free" departSpeed="max" from="-381662634#3" to="-839896054#0"/>
    <trip id="veh167" type="veh_passenger" depart="148.38" departLane="best" departPos="random_free" departSpeed="max" from="82626409" to="318729248#0"/>
    <trip id="veh168" type="veh_passenger" depart="149.27" departLane="best" departPos="random_free" departSpeed="max" from="815177646#1" to="-378875721#0"/>
    <trip id="veh169" type="veh_passenger" depart="150.16" departLane="best" departPos="random_free" departSpeed="max" from="82626341" to="-381676454#0"/>
    <trip id="veh170" type="veh_passenger" depart="151.05" departLane="best" departPos="random_free" departSpeed="max" from="82626317#3" to="554923670#16"/>
    <trip id="veh171" type="veh_passenger" depart="151.94" departLane="best" departPos="random_free" departSpeed="max" from="378869332#3" to="156599622#29"/>
    <trip id="veh172" type="veh_passenger" depart="152.83" departLane="best" departPos="random_free" departSpeed="max" from="493195996#2" to="-700243833"/>
    <trip id="veh173" type="veh_passenger" depart="153.72" departLane="best" departPos="random_free" departSpeed="max" from="379077647" to="318729235#0"/>
    <trip id="veh174" type="veh_passenger" depart="154.60" departLane="best" departPos="random_free" departSpeed="max" from="-82626332#1" to="378886811#3"/>
    <trip id="veh175" type="veh_passenger" depart="155.49" departLane="best" departPos="random_free" departSpeed="max" from="-509710150#2" to="472073229#4"/>
    <trip id="veh176" type="veh_passenger" depart="156.38" departLane="best" departPos="random_free" departSpeed="max" from="1049235992#1" to="81163817#0"/>
    <trip id="veh177" type="veh_passenger" depart="157.27" departLane="best" departPos="random_free" departSpeed="max" from="318729242#17" to="493195997"/>
    <trip id="veh178" type="veh_passenger" depart="158.16" departLane="best" departPos="random_free" departSpeed="max" from="502804523#6" to="-38609577#2"/>
    <trip id="veh179" type="veh_passenger" depart="159.05" departLane="best" departPos="random_free" departSpeed="max" from="82209418#4" to="286266778#9"/>
    <trip id="veh180" type="veh_passenger" depart="159.93" departLane="best" departPos="random_free" departSpeed="max" from="381695287#1" to="-81016194#17"/>
    <trip id="veh183" type="veh_passenger" depart="162.60" departLane="best" departPos="random_free" departSpeed="max" from="-682416275#0" to="1321592373#0"/>
    <trip id="veh184" type="veh_passenger" depart="163.49" departLane="best" departPos="random_free" departSpeed="max" from="-82905046#3" to="628737044#6"/>
    <trip id="veh185" type="veh_passenger" depart="164.38" departLane="best" departPos="random_free" departSpeed="max" from="378886819#1" to="-156331316"/>
    <trip id="veh186" type="veh_passenger" depart="165.27" departLane="best" departPos="random_free" departSpeed="max" from="815630761#1" to="391671348#0"/>