<?xml version="1.0" encoding="UTF-8"?>

<!-- generated on 2025-03-27 16:01:13.539095 by randomTrips.py v1_20_0+0000-96efa4d36d6
<configuration>
    <net-file value="osm.net.xml.gz"/>
    <output-trip-file value="osm.pedestrian.trips.xml"/>
    <route-file value="osm.pedestrian.rou.xml"/>
    <pedestrians value="True"/>
    <prefix value="ped"/>
    <vehicle-class value="pedestrian"/>
    <fringe-factor value="2"/>
    <max-distance value="2000.0"/>
    <validate value="True"/>
    <insertion-density value="10.0"/>
</configuration>
-->

<!-- generated on 2025-03-27 16:01:12 by Eclipse SUMO duarouter Version 1.20.0
<configuration xmlns:xsi="http://www.w3.org/2001/XMLSchema-instance" xsi:noNamespaceSchemaLocation="http://sumo.dlr.de/xsd/duarouterConfiguration.xsd">

    <input>
        <net-file value="osm.net.xml.gz"/>
        <route-files value="osm.pedestrian.trips.xml"/>
    </input>

    <output>
        <output-file value="osm.pedestrian.rou.xml"/>
        <alternatives-output value="NUL"/>
    </output>

    <time>
        <begin value="0.0"/>
        <end value="3600.0"/>
    </time>

    <report>
        <no-warnings value="true"/>
        <ignore-errors value="true"/>
        <no-step-log value="true"/>
    </report>

</configuration>
-->

<routes xmlns:xsi="http://www.w3.org/2001/XMLSchema-instance" xsi:noNamespaceSchemaLocation="http://sumo.dlr.de/xsd/routes_file.xsd">
    <vType id="ped_pedestrian" vClass="pedestrian"/>
    <person id="ped0" type="ped_pedestrian" depart="0.00">
        <walk edges="-699635222 -500826169#1 -699635217#0 -699635217#2 -59254860#2 -59254860#3 -59254860#4 -500826135#0 -699635200#1"/>
    </person>
    <person id="ped1" type="ped_pedestrian" depart="2.27">
        <walk edges="699308691#0 500828184#2 500828184#3 699308692#1 500828182#4 500828182#5 500828182#6 500828182#7 500828182#8 500828182#9 500828182#10 699308685#0 699308685#1 699308685#2 699308700#0 699308700#1 -699637060#1 953883950#0 953699296#7 953699296#6 953699297#0 953699297#1 1259366880 1259366879#4 59254860#9 59254860#10 940217618#1 940217630 940217632 -699305975#1 -699305975#0 -699305976#0 -500826124#4 -699305974#0 -699305974#1 -699305974#2 699305971#0"/>
    </person>
    <person id="ped5" type="ped_pedestrian" depart="11.33">
        <walk edges="697549037#0 696548829#6 696548829#7 696548829#8 696548829#9 696548829#10 696548829#11 684162599#0 684162599#1 684162599#2 684162599#3 684162600#0 684162600#1 684162600#2 696548850#0 696548850#1 696548846#10 696548846#9 696548846#8 696548846#7 696548847#0 696548847#1 696548847#2"/>
    </person>
    <person id="ped8" type="ped_pedestrian" depart="18.12">
        <walk edges="699536222 -699536223#0 -596247088#2 -596247088#1 954599928#1 954599929#0 954599929#2 699308690 699308694#1 699308694#5 699308693#0 699308693#1 699308693#2 699308683#1"/>
    </person>
    <person id="ped9" type="ped_pedestrian" depart="20.39">
        <walk edges="1259366879#4 59254860#9 59254860#10 940217618#1 940217619#1 940217619#2 940217620#1 940217621#1 940217623#0 940217623#1 1271646484#1 1271646485 -500826136#1 -500826136#2 -500826136#3 -500826136#4 500826136#5 -699443747#2"/>
    </person>
    <person id="ped10" type="ped_pedestrian" depart="22.65">
        <walk edges="953883950#3 953883950#2 699308702#1 699308699#1 699308699#0 500828181#1 378886804#3 378886804#2 378886804#1 378886804#0 696650144#2 696850218#1 696850218#0 696850219#3 681826376 696650156#5 682823780 682823781#1 682823779 696650154#7 696650154#6 378875703#1"/>
    </person>
    <person id="ped11" type="ped_pedestrian" depart="24.92">
        <walk edges="-699037769#1 696548829#3 696548829#2 696548829#1 696548829#0 684064522#2 684064522#1 684064522#0 684064521#3 684064521#2 684064521#1 684064521#0 696548850#0 696548850#1 696548846#10 696548846#9 696548846#8 698164870#0 694054415#1 696850210 696548846#1 -699147655#1"/>
    </person>
    <person id="ped12" type="ped_pedestrian" depart="27.18">
        <walk edges="699635205#1 699635203 -500826135#4 500826135#2 -500826135#1 -500826135#0 -59254860#5 -699304609#0 940217614#1 1259366872#0 1259366872#1 1259366877#0 1259366877#1 1259366876#0 1259366876#1 697914904#0 697914904#2 697914903 684064525#0 684064525#1 684064525#2 696548829#7 696548829#6 697549037#0"/>
    </person>
    <person id="ped13" type="ped_pedestrian" depart="29.45">
        <walk edges="699536225 -596247088#2 596247088#4 -596247088#5 -596247088#6 -596247088#7 596247088#8 -596247088#9 -596247088#11 -596247088#12 699536204#0 378886804#2 378886804#1 378875747 378875745 378875742#3 378875742#2 378875742#1 378875742#0 696850214#1 696850220#1 696850222#0 696548846#0 -699147655#1 -699147655#2 699391002#0"/>
    </person>
    <person id="ped14" type="ped_pedestrian" depart="31.71">
        <walk edges="681784958#6 681869812#1 681869812#0 696548829#1 696548829#0 696548828 684162599#0 684162599#1 684162599#2 684162599#3 696548849#0 696548849#1 696548849#2 696548849#3 1259366883 699059980#1 698159129#0 698159129#1 698159129#2 698164872#2 59254860#0 -59254860#1 -59254860#2 160247889#2 160247889#1 160247889#0 940217636#0 940217636#1 953883950#2 699308702#1 699308702#0 699308685#2 500828183#11 500828183#10 500828183#9 500828183#8 500828183#7 500828183#6 500828183#5 500828183#4 500828183#3 500828183#2 500828183#1 500828183#0 954599927#2"/>
    </person>
    <person id="ped15" type="ped_pedestrian" depart="33.98">
        <walk edges="699635155#2 -699635171#2 -699635170#0 -699635170#1 -699635170#2 1064344701 953883947#0 953699296#1 953699296#0 953699296#7 953699296#6 953699297#0 953699297#1 1259366880 1259366879#4 -59254860#6 -59254860#5 -59254860#4 -59254860#3 -59254860#2 -59254860#1 -59254860#0 698164872#0 698159134 698159132#1 698159132#0 698167560 699059988#1 699059988#0 698164875#1"/>
    </person>
    <person id="ped16" type="ped_pedestrian" depart="36.24">
        <walk edges="699637056#1 500828185#2 699308677#1 699308677#0 699308682#0 699308679#2 699308679#1 699308679#0 954599927#6 954599927#7 954599927#8 954599929#2 954599929#0 954599928#1 954599928#0 696650144#0 696650143#1 696650143#0 696650156#14 696650156#13 696650156#12 696650156#11 696650156#10"/>
    </person>
    <person id="ped17" type="ped_pedestrian" depart="38.51">
        <walk edges="699214152 -699214153#2 -699391004#1 696548846#4 696548846#3 696548846#2 696548846#1 696548846#0 696850222#0 509710161#1 -509710161#2 -509710161#3 -509710161#4 -509710161#5 -59254860#0 -59254860#1 -59254860#2 160247889#2 160247889#1 160247889#0 940217636#0 940217636#1 953883950#2 953883950#1 -699637060#1 501177572#1 -501177572#0"/>
    </person>
    <person id="ped18" type="ped_pedestrian" depart="40.77">
        <walk edges="-699536257#1 -699536258 -501177576#21 501177576#5 -501177576#4 -501177576#2 -501177576#1 696850214#4 -509710161#5 -59254860#0 -59254860#1 -59254860#2 -59254860#3 -59254860#4 -59254860#5 -59254860#6 1259366879#4 1259366879#3 1259366879#2 1259366879#1"/>
    </person>
    <person id="ped19" type="ped_pedestrian" depart="43.04">
        <walk edges="-699147649 -699391002#1 -699391002#0 -699147655#2 -699147655#1 696548846#0 696850222#0 509710161#1 -509710161#2 -509710161#3 -509710161#4 -509710161#5 -59254860#0 -59254860#1 -59254860#2 160247889#2 160247889#1 160247889#0 940217636#0 940217636#1 953883950#2 699308702#1 699308702#0 699308685#2 500828183#11 500828181#5 500828185#8 500828185#7 500828185#6 500828185#5 500828185#4 500828185#3 500828185#2 500828185#1 1085559679"/>
    </person>
    <person id="ped21" type="ped_pedestrian" depart="47.57">
        <walk edges="-699635201 -699635202#0 500826135#2 -500826135#1 -500826135#0 -59254860#5 -59254860#6 1259366879#4 1259366880 953699297#1 953699297#0 953699296#6 953699296#7 953699296#0 953699296#1 953883947#0 1064344701 -699635170#2 -699635170#1 -699635170#0 -699635171#2 -699635171#3 -699635171#5 -699635171#6 1085493627 1085493628 699538714#11 -699538713#2 -699538713#1 -699538713#0 -699538717#4 -699384216#2 -699384216#3 -699538714#4 1064344705 379863828#3 379863828#4 954834407#1 954834407#0 953699284#2 953699285"/>
    </person>
    <person id="ped22" type="ped_pedestrian" depart="49.84">
        <walk edges="697048051 696339586#5 697047892#1 696339586#0 684318181 696548846#10 696548846#11 698159130"/>
    </person>
    <person id="ped24" type="ped_pedestrian" depart="54.37">
        <walk edges="-699443711 -699443712#0 -160247886#6 1259366881#0 1259366879#1 1259366879#0 1259366878#2 1259366878#1 1259366878#0 1259366875#1 1259366877#1 1259366876#0 1259366876#1 697914904#0 697914904#2 697914903 684064525#0 684064525#1 684064525#2 696548829#8 681784961 472559590#1 472559590#0"/>
    </person>
    <person id="ped25" type="ped_pedestrian" depart="56.63">
        <walk edges="958717354#1 958717351#1 958717351#0 958717350 1316950569 953699283#2 953699283#3 953699293 953699296#7 953699296#6 953699297#0 953699297#1 1259366880 1259366879#4 1259366879#5 1259366872#0 1259366872#1 1259366877#0 1259366877#1 1259366876#0 1259366876#1 697914904#0 697914904#2 697914903 684064525#0 684064525#1 684064525#2 696548829#7 696548829#6 697549037#0 697549037#1 699145731#0 699145731#1"/>
    </person>
    <person id="ped27" type="ped_pedestrian" depart="61.16">
        <walk edges="699635190#5 -699635190#0 -699635178#1 -699635178#0 -699635184#3 -699635184#2 -699635184#1 953915675#0 953699291#1 953699291#0 953883948#3 953883948#2 953883948#1 953883948#0 953699296#4 953699296#5 953699296#6 953699296#7 953883950#0 -699637060#1 699308700#1 699308700#0 699308685#2 699308685#1 699308685#0 500828181#3 500828181#2 500828181#1 378886804#3 699536204#1 -699536183#5 -699536183#4 -699536183#2 -699536183#1 -699536183#0 -501177583#0 -501177583#1 -501177583#2 -501177583#3 -501177583#4 -501177583#5 -501177583#6 699536193"/>
    </person>
    <person id="ped30" type="ped_pedestrian" depart="67.96">
        <walk edges="-699536215 -596247088#7 596247088#8 -596247088#9 -596247088#11 -596247088#12 699536204#0 378886804#3 500828181#1 500828181#2 500828181#3 699308685#0 699308685#1 699308685#2 699308700#0 699308700#1 -699637060#1 953883950#0 953699296#0 953699296#1 953883947#0 953883947#1 953883947#2 953883947#3 953883947#4 953883947#5 953699290#0 953699290#1 953699290#2 953699290#3 953699290#4"/>
    </person>
    <person id="ped32" type="ped_pedestrian" depart="72.49">
        <walk edges="698159132#0 698159132#1 698159134 698164872#0 -59254860#0 -59254860#1 -699635217#2 -699635217#0 500826169#1"/>
    </person>
    <person id="ped33" type="ped_pedestrian" depart="74.75">
        <walk edges="940217621#3 940217633#0 940217633#1 -699305971#0 -699305974#2 -699305974#1 -699305974#0 -500826124#4 -699305976#0 -699305975#0 -699305975#1 940217632 940217630 940217618#1 59254860#10 59254860#9 59254860#6 59254860#5 59254860#4 59254860#3 160247889#2 -361754213#0 361754212 599094620"/>
    </person>
    <person id="ped36" type="ped_pedestrian" depart="81.55">
        <walk edges="-699037765#1 -699037764#0 -699037766#0 -699037769#2 -699037769#1 696548829#3 696548829#2 696548829#1 696548829#0 696548828 684162599#0 684162599#1 684162599#2 684162599#3 696548849#0 696548849#1 696548849#2 696548849#3 698167555#0 699059981#2 698159135#0 698159135#1 698159132#0 698159132#1 698159134 698164868#1 696850214#4 -501177576#1 -501177576#2 -501177576#4 501177576#5 -501177576#6 -501177576#7 -501177576#8 -501177576#9 -501177576#10 -501177576#11 -501177576#12"/>
    </person>
    <person id="ped37" type="ped_pedestrian" depart="83.81">
        <walk edges="-699214137 699214138#3 -699214138#2 -699214138#1 -699214138#0 699214139 699214151#1 697333924#1 696548848#0 696548848#1 696548846#6 696548846#7 696548846#8 696548846#9 696548846#10 696548850#1 696548850#0 684064521#0 684064521#1 684064521#2 684064521#3 684064522#0 684064522#1 684064522#2 696548829#0 696548829#1 696548829#2 696548829#3 -699037769#1 -699037769#2 -699037766#0 -699037764#0 699037764#1"/>
    </person>
    <person id="ped40" type="ped_pedestrian" depart="90.61">
        <walk edges="-160247886#1 -160247886#2 -160247886#3 160247886#4 -160247886#6 1259366881#0 1259366879#1 1259366879#0 1259366878#2 1259366878#1 -501177558#1 -699376447#0 -699376447#1 -699391701 -699376445#0 699376444#0"/>
    </person>
    <person id="ped41" type="ped_pedestrian" depart="92.87">
        <walk edges="699059992#0 699059982#1 699059982#0 698159130 696548846#11 696548846#10 696548846#9 696548846#8 696548846#7 696548846#6 696548848#1 696548848#0 697333924#1 699214151#1 699214151#2 699214151#3 -699391003#0 -699391003#1 -699391003#2 683035049#3 683035049#2 683035049#1 683035049#0 696548844#1"/>
    </person>
    <person id="ped42" type="ped_pedestrian" depart="95.14">
        <walk edges="-699635201 -699635202#0 500826135#2 -500826135#1 -500826135#0 -59254860#4 -59254860#3 -59254860#2 -59254860#1 -59254860#0 -509710161#5 -509710161#4 -509710161#3 -509710161#2 509710161#1 696850222#1 696850212#0 -699146809#1 -699146809#2 -699146805#0 -699146802#0 699146801"/>
    </person>
    <person id="ped43" type="ped_pedestrian" depart="97.40">
        <walk edges="-699214140#2 699214140#2 699214139 699214151#1 697333924#2 696850212#3 696850212#2 696850212#1 696850212#0 696850222#1 509710161#1 -509710161#2 -509710161#3 -509710161#4 -509710161#5 -59254860#0 -59254860#1 -59254860#2 -59254860#3 -59254860#4 -59254860#5 -59254860#6 1259366879#4 1259366880 953699297#1 953699297#0 953699296#6 953699296#7 953699296#0 953699296#1 953883947#0 953883947#1 953883947#2 953883947#3 379863827#6 379863827#5 379863827#4 379863827#3 953621471 552085059#3"/>
    </person>
    <person id="ped44" type="ped_pedestrian" depart="99.67">
        <walk edges="500828183#3 500828183#4 500828183#5 500828183#6 500828183#7 500828183#8 500828183#9 500828183#10 500828183#11 699308700#0 699308700#1 -699637060#1 953883950#0 953699296#7 953699296#6 953699296#5 953699296#4 953883948#0 953883948#1"/>
    </person>
    <person id="ped47" type="ped_pedestrian" depart="106.47">
        <walk edges="-926161367 699635150#2 -699635150#1 953883948#2 953883948#1 953883948#0 953699296#4 953699296#5 953699297#0 953699297#1 1259366880 1259366879#4 1259366879#5 1259366872#0 1259366872#1 1259366877#0 1259366877#1 1259366876#0 1259366876#1 697914904#0 697914904#2 697914903 684064525#0 684064525#1 684064525#2 696548829#7 696548829#6 697549037#0 697549037#1 472552792#1 699144909 699144910#1"/>
    </person>
    <person id="ped48" type="ped_pedestrian" depart="108.73">
        <walk edges="699391010#1 953699290#3 953699290#4 953699290#5 953699291#0 953699291#1 160247885#1 160247885#0 953915678#1 953915678#0 1259366880 1259366879#4 -59254860#6 -59254860#5 -59254860#4 -59254860#3 -59254860#2 -59254860#1 -59254860#0 -509710161#5 -509710161#4 -509710161#3 -509710161#2 509710161#1 696850222#0 696548846#0"/>
    </person>
    <person id="ped57" type="ped_pedestrian" depart="129.12">
        <walk edges="699443712#1 -699443712#0 -160247886#6 1259366881#1 953615088#0 953615088#1 953915676#0 500826165#1 -500826165#2 -500826165#3 -500826165#4 -699376431#0"/>
    </person>
    <person id="ped58" type="ped_pedestrian" depart="131.38">
        <walk edges="509710161#4 -509710161#3 -509710161#2 -509710161#1 696850223#0 696850215#1 696850215#0 696850217#1 696850218#0 696850219#3 696650156#15 696650138#1 696650138#0 696650131#7 696650131#8 696650130#1"/>
    </person>
    <person id="ped60" type="ped_pedestrian" depart="135.91">
        <walk edges="472552790#1 472552792#0 697549037#1 697549037#0 696548829#6 696548829#7 684064525#2 684064525#1 684064525#0 697914903 697914904#2 697914904#0 1259366876#1 1259366876#0 1259366877#1 1259366877#0 1259366872#1 1259366872#0 1259366879#5 1259366879#4 1259366880 953699297#1 953699297#0 953699296#6 953699296#7 953699296#0 953699296#1 953883947#0 1064344701 -699635170#3 -699635170#4 -699635170#5"/>
    </person>
    <person id="ped61" type="ped_pedestrian" depart="138.18">
        <walk edges="681784963#1 681784958#1 681784959#0 -681784954#1 681784954#2 696548829#0 684064522#2 684064522#1 684064522#0 684064521#3 684064521#2 684064521#1 684064521#0 696548850#0 696548850#1 696548846#10 696548846#9 696548846#8 698164870#0 694054415#1 696850210 696548846#1 -699147655#1 -699147655#2 -699391002#0 699391002#1"/>
    </person>
    <person id="ped64" type="ped_pedestrian" depart="144.97">
        <walk edges="500826136#12 -500826136#11 -500826136#10 -500826136#9 -500826136#8 -500826136#7 -500826136#6 500826136#5 -500826136#4 1271646483 379863853#2 379863850 379036554#3 379036554#2 379036554#1 379036554#0 1259366871 1259366873 1259366876#0 1259366876#1 697914904#0 697914904#2 697914903 684064525#0 684064525#1 684064525#2 696548829#8 696548829#9 696548829#10 696548829#11 684162599#0 684162599#1 684162599#2 684162599#3"/>
    </person>
    <person id="ped65" type="ped_pedestrian" depart="147.24">
        <walk edges="-699304607#0 -699304606#0 -699304618#0 -699304618#1 699304621#2 -699304621#1 -699304621#0 -59254860#4 -500826135#0 -500826135#1 500826135#2 -500826135#4 699635203 -699635204"/>
    </person>
    <person id="ped66" type="ped_pedestrian" depart="149.51">
        <walk edges="1259366878#1 1259366878#2 1259366879#0 59254860#6 59254860#5 59254860#4 59254860#3 59254860#2 59254860#1 -59254860#0 -509710161#5 -509710161#4 -509710161#3 -509710161#2 509710161#1 696850222#1 696850212#0"/>
    </person>
    <person id="ped67" type="ped_pedestrian" depart="151.77">
        <walk edges="-699536264 -501177576#17 -501177576#18 -501177576#19 -501177576#21 501177576#5 -501177576#4 -501177576#2 -501177576#1 696850214#4 -509710161#5 -59254860#0 -59254860#1 -59254860#2 -59254860#3 -59254860#4 -59254860#5 -59254860#6 1259366879#4 1259366879#3 1259366879#2 1259366881#0 1259366881#1 953915675#1 -699635184#1 -699635184#2 -699635184#3 -699635178#0 -699635178#1 -699635190#0 -699635190#5 -699635190#4"/>
    </person>
    <person id="ped68" type="ped_pedestrian" depart="154.04">
        <walk edges="-59254860#3 59254860#4 59254860#5 -699304609#0 940217614#1 1259366872#0 1259366872#1 1259366877#0 1259366877#1 1259366876#0 1259366876#1 697914904#0 697914904#2 697914903 684064525#0 684064525#1 684064525#2 696548829#7 681784962 681796254 681796253 696548829#4 -699037769#1 -699037769#2 -699037769#3 -699037769#4 -699037769#5 699037769#6"/>
    </person>
    <person id="ped70" type="ped_pedestrian" depart="158.57">
        <walk edges="699637052 500828183#8 500828183#9 500828183#10 500828181#4 500828181#3 500828181#2 500828181#1 378886804#3 699536204#0 -596247088#12 -596247088#11 -596247088#9 -596247088#8"/>
    </person>
    <person id="ped71" type="ped_pedestrian" depart="160.83">
        <walk edges="-699538715 -699538717#3 -699538717#4 -699538713#0 -699538713#1 -699538713#2 699538714#11 1085493628 1085493627 -699635171#6 -699635171#5 -699635171#3 -699635171#2 -699635170#0 -699635170#1 -699635170#2 1064344701 953883947#0 953699296#1 953699296#0 953699296#7 953699296#6 953699297#0 953699297#1 1259366880 1259366879#4 -59254860#6 -59254860#5 -59254860#4 -699304621#0 -699304621#1 -699304616#0 -699304616#1 -699304616#2 -699304616#3 -699304611 699304610#1"/>
    </person>
    <person id="ped72" type="ped_pedestrian" depart="163.10">
        <walk edges="-699536223#1 -699536223#2 -596247088#5 -596247088#6 -596247088#7 596247088#8 -596247088#9 -596247088#11 -596247088#12 699536204#0 378886804#3 500828181#1 500828181#2 500828181#3 699308685#0 699308685#1 699308685#2 699308700#0 699308700#1 -699637060#1 953883950#0 953699296#7 953699296#6 953699297#0 953699297#1 1259366880 1259366879#4 1259366879#0 1259366878#2 1259366878#1 -501177558#1 -501177558#2 -699376445#1"/>
    </person>
    <person id="ped73" type="ped_pedestrian" depart="165.36">
        <walk edges="953699283#3 954599927#0 954599927#1 954599927#2 954599927#3 954599927#4 954599927#5 954599927#6 954599927#7 954599927#8 954599929#2 954599929#0 954599928#1 954599928#0 696650144#0 696650143#1 696650143#0 696650156#14 696650156#13 696650156#12 696650156#11 1289027427#1 1289027427#0 1289027428#2 696650151#0 696650151#1 696650151#2 696650147#2 696650147#1 696650147#0 696650146#0 696650146#1 696650154#11"/>
    </person>
    <person id="ped74" type="ped_pedestrian" depart="167.63">
        <walk edges="501177583#3 -501177583#2 -501177583#1 -501177583#0 -699536183#0 -699536183#1 -699536183#2 -699536183#4 -699536183#5 699536204#1 699536204#0 -596247088#12 -596247088#11 -596247088#9 596247088#8 699536219#1"/>
    </person>
    <person id="ped75" type="ped_pedestrian" depart="169.89">
        <walk edges="699536227#0 -699536233#7 -699536233#6 -699536233#5 -699536233#3 -699536233#1 -699536233#0 -699536247#0 -699536247#1 -699536247#2 -699536247#3 -699536247#4 -699536246#0"/>
    </person>
    <person id="ped76" type="ped_pedestrian" depart="172.16">
        <walk edges="-699146805#2 -699146805#1 -699146805#0 -699146809#2 -699146809#1 696850212#0 696850222#1 509710161#1 -509710161#2 -509710161#3 -509710161#4 -509710161#5 -59254860#0 -59254860#1 -59254860#2 -59254860#3 -59254860#4 -59254860#5 -59254860#6 1259366879#4 1259366880 953699297#1 953699297#0 953699296#6 953699296#7 953699296#0 953699296#1 953883947#0 953883947#1 953883947#2 953883947#3 953883947#4 552085057#0"/>
    </person>
    <person id="ped78" type="ped_pedestrian" depart="176.69">
        <walk edges="699308681#0 699308679#2 699308682#0 699308682#1 699308678#0 500828183#4 500828183#5 500828183#6 500828183#7 500828183#8 500828183#9 500828183#10 500828183#11 699308685#2 699308702#0 699308702#1 953883950#2 940217636#1 940217636#0 160247889#0 160247889#1 160247889#2 59254860#3 699304621#0"/>
    </person>
    <person id="ped79" type="ped_pedestrian" depart="178.95">
        <walk edges="954599934#0 954599934#1 954599927#3 954599927#2 500828183#0 500828183#1 500828183#2 500828183#3 500828183#4 500828183#5 500828183#6 500828183#7 500828183#8 500828183#9 500828183#10 500828183#11 699308685#2 699308702#0 699308702#1 953883950#2 940217636#1 940217636#0 160247889#0 160247889#1 160247889#2 -59254860#2 -59254860#1 -59254860#0 698164872#0 698164873 698164867#1 698164867#0 698167549#1 -699148306#1 -699148302#0"/>
    </person>
    <person id="ped84" type="ped_pedestrian" depart="190.28">
        <walk edges="500826169#0 -500826169#0 -699635217#0 -699635217#2 -59254860#1 -59254860#0 -509710161#5 -509710161#4 -509710161#3 -509710161#2 -509710161#1 -509710155#1 -514652461 696650158#2 696650154#2 696650154#3 696650154#4 696650154#5 -378875703#1 -378875703#2 806721801"/>
    </person>
    <person id="ped86" type="ped_pedestrian" depart="194.81">
        <walk edges="954595407#1 953915673 953699288#0 953699288#1 953699288#2 953699290#2 953699290#3 953699292 953915676#1 953915676#0 953615088#2"/>
    </person>
    <person id="ped88" type="ped_pedestrian" depart="199.34">
        <walk edges="379036554#2 379863834#2 379863834#1 379863832#1 379863831 953883947#4 -552085057#2 -552085057#4 -552085057#5 552085059#1 -552085059#0"/>
    </person>
    <person id="ped89" type="ped_pedestrian" depart="201.61">
        <walk edges="306371084#0 306371084#1 82905060#2 82905060#1 954599930#2 954599930#3 954599932#0 954599932#2 954599933#0 954599933#1 954599933#2 954599933#3 1316950569 958717350"/>
    </person>
    <person id="ped90" type="ped_pedestrian" depart="203.87">
        <walk edges="-699635196 -699635184#2 -699635184#1 953915675#0 953699291#1 953699291#0 953883948#3 953883948#2 953883948#1 953883948#0 953699296#4 953699296#5 953699296#6 953699296#7 953883950#0 -699637060#1 699308700#1 699308700#0 699308685#2 699308685#1 699308685#0 500828181#3 500828181#2 500828181#1 378886804#3 699536204#0 -596247088#12 -596247088#11 -596247088#9 596247088#8 -596247088#7 -596247088#6 699536216"/>
    </person>
    <person id="ped91" type="ped_pedestrian" depart="206.14">
        <walk edges="500828183#6 500828183#7 500828183#8 500828183#9 500828183#10 500828183#11 699308685#2 699308702#0 699308702#1 953883950#2 940217636#1 940217636#0 160247889#0 160247889#1 160247889#2 -59254860#2 -59254860#1 -59254860#0 -509710161#5 696850214#4 -501177576#1 -501177576#2 -501177576#4 501177576#5 -501177576#21 501177576#19"/>
    </person>
    <person id="ped92" type="ped_pedestrian" depart="208.40">
        <walk edges="682823781#2 696650156#3 696650156#2 696650156#1 696650156#0 696850223#1 -509710161#1 -509710161#2 -509710161#3 -509710161#4 -509710161#5 -59254860#0 -59254860#1 -59254860#2 -59254860#3 -59254860#4 -59254860#5 -59254860#6 1259366879#4 1259366879#3 1259366879#2 1259366881#0 1259366881#1 953615088#0 953615088#1 953915676#0 500826165#1 -500826165#2 -699376437#0 699376437#1"/>
    </person>
    <person id="ped93" type="ped_pedestrian" depart="210.67">
        <walk edges="-699384227#0 -699384227#1 -552085057#10 -552085057#9 -552085057#7 552085057#6 -552085057#5 -552085057#4 -552085057#2 953883947#5 953699290#0 953699290#1 953699290#2 953699290#3 953699292 953915676#1 953915676#0 953615088#2 -59254860#15 59254860#16 379863853#4 1271646485"/>
    </person>
    <person id="ped95" type="ped_pedestrian" depart="215.20">
        <walk edges="681796255 472559596#2 472559596#3 681796254 681784962 696548829#7 684064525#2 684064525#1 684064525#0 697914903 697914904#2 697914904#0 1259366876#1 1259366876#0 1259366873 1259366871 379036554#0 379036554#1 379036554#2 379036554#3 379863850 379863853#1 1271646488#1 -500826136#14 -500826136#13 699443739#0"/>
    </person>
    <person id="ped96" type="ped_pedestrian" depart="217.46">
        <walk edges="-545827857 -545827855#1 -545827855#2 -699391010#1 953699290#3 953699290#4 953699290#5 953699291#0 953699291#1 160247885#1 160247885#0 953915678#1 953915678#0 1259366880 1259366879#4 -59254860#6 -59254860#5 -59254860#4 -59254860#3 -59254860#2 -59254860#1 -59254860#0 -509710161#5 -509710161#4 -509710161#3 -509710161#2 -509710161#1 696850223#1 696650156#0 696650156#1 696650156#2 696650158#0 696650158#1"/>
    </person>
    <person id="ped98" type="ped_pedestrian" depart="221.99">
        <walk edges="-699391001 -699147653#0 -699391005#0 -699147655#1 696548846#0 696850222#0 509710161#1 -509710161#2 -509710161#3 -509710161#4 -509710161#5 -59254860#0 -59254860#1 -59254860#2 160247889#2 160247889#1 160247889#0 953883951#2 953883951#3 953883952#1 953883952#0 953883952#8 953883952#7 953883952#6"/>
    </person>
    <person id="ped99" type="ped_pedestrian" depart="224.26">
        <walk edges="696548851#0 696548851#1 684064522#0 684064522#1 684064522#2 696548828 696548829#11 696548829#10 696548829#9 696548829#8 684064525#2 684064525#1 684064525#0 697914903 697914904#2 697914904#0 1259366876#1 1259366876#0 1259366873 1259366871 379036554#0 379036554#1 379863834#2 940217631 -699391700#3 -699391700#2 -699391700#1 -699391700#0 -699305970#0 -699305970#1 699305969"/>
    </person>
    <person id="ped100" type="ped_pedestrian" depart="226.52">
        <walk edges="-699538713#2 -699538713#3 -699538714#9 -699538714#8 -699538714#7 1064344706 379863827#1 1064344702 1064344704 379863827#5 379863827#6 379863831 379863832#1 940217632 -699305975#1 -699305975#0 -699305976#0 -500826124#3 -699305978#0 -699305977"/>
    </person>
    <person id="ped101" type="ped_pedestrian" depart="228.79">
        <walk edges="82907257#2 -82907330#1"/>
    </person>
    <person id="ped102" type="ped_pedestrian" depart="231.05">
        <walk edges="696548850#1 696548846#11 698159130 699059982#0 698159133#0 698159133#1 698167556#0 699059988#0 698167561#1 699059990#1 698167550#0 698167550#1 698167549#0 698167549#1"/>
    </person>
    <person id="ped103" type="ped_pedestrian" depart="233.32">
        <walk edges="-699536193 -501177583#6 -501177583#5 -501177583#4 -501177583#3 -501177583#2 -501177583#1 -501177583#0 -699536183#0 -699536183#1 -699536183#2 -699536183#4 -699536183#5 699536204#1 378886804#3 500828181#1 500828181#2 500828181#3 699308685#0 699308685#1 699308685#2 699308700#0 699308700#1 -699637060#1 953883950#0 953699296#0 953699296#1 953883947#0 953883947#1 953883947#2 953883947#3 953883947#4 953883947#5 953699290#0 953699290#1 953699290#2 953699290#3 953699292 953915676#1 500826165#1 -500826165#2 -500826165#3 -699376434#0 699376432"/>
    </person>
    <person id="ped104" type="ped_pedestrian" depart="235.58">
        <walk edges="-699538717#2 -699538717#3 -699538717#4 -699538713#0 -699538713#1 -699538713#2 699538714#11 1085493628 500828181#9 500828181#8 699308699#4 699308699#3 699308699#2 699308702#1 953883950#2 940217636#1 940217636#0 160247889#0 160247889#1 160247889#2 -59254860#2 -699635217#2 -699635217#0 -500826169#1 500826169#2"/>
    </person>
    <person id="ped108" type="ped_pedestrian" depart="244.64">
        <walk edges="998466229#0 -998466228#1 998466230 471931148#2 471931148#1 471931148#0 574013242#1 -998168643 998168640"/>
    </person>
    <person id="ped109" type="ped_pedestrian" depart="246.91">
        <walk edges="-596247088#1 -596247088#2 596247088#4 -596247088#5 -596247088#6 -596247088#7 596247088#8 -596247088#9 -596247088#11 -596247088#12 699536204#0 378886804#3 500828181#1 500828181#2 500828181#3 699308685#0 699308685#1 699308685#2 699308700#0 699308700#1 -699637060#1 953883950#0 953699296#7 953699296#6 953699296#5 953699296#4 953883948#0 953883948#1 -699635172"/>
    </person>
    <person id="ped110" type="ped_pedestrian" depart="249.18">
        <walk edges="-699635196 -699635184#2 -699635184#1 953915675#0 953699291#1 953699291#0 953699290#6 953699290#7 953883947#5 -552085057#2 -552085060#3 953621470 379863827#5 1064344704 1064344702 379863828#0 1064344707 -699538714#5 -699384216#3 -699384216#2 -699538717#3 -699538717#2 -699538717#1 -699384218#1 -699384218#0 699384219#1 953699281#0 699384220#0 953699284#0 953699283#0"/>
    </person>
    <person id="ped111" type="ped_pedestrian" depart="251.44">
        <walk edges="249856061#0 1059303644#1 -699446971#0"/>
    </person>
    <person id="ped112" type="ped_pedestrian" depart="253.71">