<?xml version="1.0" ?>
<routes>
    <route edges="381662629#2 -82626328#5 -82626328#4 -82626328#3 -82586444#4 -82586444#3 -82586444#2 -82586444#1 -82586444#0 -82586450#0 -318729246#1 -318729246#0 -318729245 -81016190 -629778311#1 -629778311#0 -699769335#3 -699769335#2 -699769335#1 -156599622#31" id="veh0_route"/>
    <vehicle depart="0.00" departLane="best" departPos="random_free" departSpeed="max" id="veh0" route="veh0_route" type="veh_passenger"/>
    <vehicle depart="0.00" id="truck0" type="truck" color="1,1,1">
        <stop parkingArea="pa-1" parking="true" started="0" duration="300"/>
        <route edges="-81016194#21"/>
    </vehicle>
    <vehicle depart="0.00" id="truck1" type="truck" color="1,1,1">
        <stop parkingArea="pa-2" parking="true" started="0" duration="300"/>
        <route edges="-81163819#10"/>
    </vehicle>
    <vehicle depart="0.00" id="truck2" type="truck" color="1,1,1">
        <stop parkingArea="pa-3" parking="true" started="0" duration="300"/>
        <route edges="-685069351#5"/>
    </vehicle>
    <route edges="-554923672#0 -509379756#1 -509379756#0 509379757#0 509379757#1 509379760 318705785 318705784 -468684045#6 -468684045#5 -468684045#4 -468684045#3 -468684045#2 -468684045#1 -468684045#0" id="veh1_route"/>
    <vehicle depart="0.89" departLane="best" departPos="random_free" departSpeed="max" id="veh1" route="veh1_route" type="veh_passenger"/>
    <route edges="497330606#1 -929197057#1 -929197057#0 -379072996#1 -379072996#0 -379072997#1 -379072997#0 -585392816 -472039977#6 -472039977#5 -472039977#4 -472039977#3 -472039977#2 -472039977#1 -472039977#0 554923670#1 554923670#3 554923670#4 554923670#5 554923670#6 554923670#7 554923670#10 554923670#11 554923670#12 554923670#15 554923670#16 554923670#17 554923670#18 554923670#19 554923670#20 -502804524#4 -502804524#3 -502804524#2 -1230107746#2 -554923669#0 -37895049#14 -37895049#13 -37895049#11 -37895049#10 -37895049#8 -37895049#7 -37895049#6 -37895049#4 -37895049#3 -37895049#2 -37895049#1 -37895049#0 -682097998#2 -682097998#1 -682097998#0 -38657768" id="veh2_route"/>
    <vehicle depart="1.78" departLane="best" departPos="random_free" departSpeed="max" id="veh2" route="veh2_route" type="veh_passenger"/>
    <route edges="156329888 472039969#0 472039969#1 472039969#2 472039962#0 472039962#1 -156599658#6 -156599658#5 -156599658#4 -156599658#3 -156599655" id="veh3_route"/>
    <vehicle depart="2.67" departLane="best" departPos="random_free" departSpeed="max" id="veh3" route="veh3_route" type="veh_passenger"/>
    <route edges="38609685#7 38609685#8 38609685#9 514652461 509710155#1 81163819#1 81163819#2 81163819#3 81163819#4 81163819#8 81163819#10 502804523#1 502804523#3 502804523#4 502804523#5 502804523#6 503694063#0 502804524#0 502804524#3 502804524#4 -554923670#20 -554923670#19 -554923670#18 -554923670#17 -554923670#16 -554923670#15 156599622#28 156599622#29 156599622#30 156599622#31 378886821#1 378886821#2 378886821#3 378886821#4 81016194#27 81016194#28 318729259 -318729201 -318729210 187927721#0 187927721#1 187927721#2 187927721#3 187927721#4 -318729197#3" id="veh4_route"/>
    <vehicle depart="3.55" departLane="best" departPos="random_free" departSpeed="max" id="veh4" route="veh4_route" type="veh_passenger"/>
    <route edges="-156599622#4 -156599622#3 -156599622#2 684064524#1 682416273 165477494 472039970 187927816 187927841 493199549#0 493199549#1 493199549#2 493199549#3 493199549#4 493199549#5 472039976#0 472039976#1 187927823 187927803#0 497330223#0 497330223#1 497330223#2 808171401 -285405927#5 381695285#0 -381695287#1 381695289#0 381695290" id="veh5_route"/>
    <vehicle depart="4.44" departLane="best" departPos="random_free" departSpeed="max" id="veh5" route="veh5_route" type="veh_passenger"/>
    <route edges="381676474#3 -318729236#3 -318729236#2 -318729236#1 318729238#1 318729238#2 318729238#3 318729238#4 318729200 318729201 -318729259 -81016194#28 -81016194#27 -378886821#4 -378886821#3 -378886821#2 -378886821#1 -378886819#5 -378886819#4 -378886819#2 -378886819#1 509710165#5 509710165#6 509710165#7 509710165#8 509710165#9 509710165#10 509710165#11 509710165#12 509710165#15 509710165#16 509710165#17 509710165#18 509710165#19 684162598#1 684162598#2 684162598#3 684162598#4 684162598#7 361753482#0 361753482#1 361753482#4 361753490#0" id="veh6_route"/>
    <vehicle depart="5.33" departLane="best" departPos="random_free" departSpeed="max" id="veh6" route="veh6_route" type="veh_passenger"/>
    <route edges="-391671348#1 -391671348#0 585392828#0 1186451176 -379072996#1 -379072996#0 -379072997#1 -379072997#0 -585392816 -472039977#6 -472039977#5 -472039977#4 -472039977#3 -472039977#2 -472039977#1 -472039977#0 554923670#1 554923670#3 554923670#4 554923670#5 554923670#6 554923670#7 554923670#10 554923670#11 554923670#12 554923670#15 554923670#16 554923670#17 554923670#18 554923670#19 554923670#20 -502804524#4 -502804524#3 -502804524#2 -1230107746#2 -554923669#0 -37895049#14 -37895049#13 -37895049#11 -37895049#10 -37895049#8" id="veh7_route"/>
    <vehicle depart="6.22" departLane="best" departPos="random_free" departSpeed="max" id="veh7" route="veh7_route" type="veh_passenger"/>
    <route edges="561944179 82626388#3 187927721#3 187927721#4 187927721#5 808171413 318729217 509379759#3 509379759#4 509379759#5 -82209418#14 -82209418#13 -82209418#12 -82209418#11 -82209418#10 -82209418#8 -82209418#7 -82209418#6 -82209418#5 -156331313#3 -156331313#2 -156331313#1" id="veh8_route"/>
    <vehicle depart="7.11" departLane="best" departPos="random_free" departSpeed="max" id="veh8" route="veh8_route" type="veh_passenger"/>
    <route edges="554923671#2 682416275#4 682416263#1 682416263#2 682416274 -81016194#29 -81016194#28 -81016194#27 -81016194#26 -81016194#24 -81016194#23 -81016194#21 -81016194#20 -81016194#18 -81016194#17 -81016194#16 -81016194#15 -81016194#13 -81016194#12 -81016194#11 -81016194#10 -81016194#9 -81016194#8 -81016194#7 -81016194#6 -81016194#5 -81016194#4 -81016194#3 -81016194#2 -81016194#1 -81016194#0 682416273 165477494 472039970" id="veh9_route"/>
    <vehicle depart="8.00" departLane="best" departPos="random_free" departSpeed="max" id="veh9" route="veh9_route" type="veh_passenger"/>
    <route edges="-81016194#23 -554923670#7 379863863#1 379863863#2 379863863#3 379863863#4" id="veh10_route"/>
    <vehicle depart="8.89" departLane="best" departPos="random_free" departSpeed="max" id="veh10" route="veh10_route" type="veh_passenger"/>
    <route edges="82626305#1 82626305#2 187927721#8 187927721#10 187927721#11 187927721#12 286266779#1 -318729205 -318729218 -1046738887 -82209418#14 -82209418#13 -82209418#12 -82209418#11 -82209418#10 -82209418#8 -82209418#7 -82209418#6 -82209418#5 -82209418#4 -82209418#3 -82209418#2 -82209418#1 -82209418#0 -59254860#15 -59254860#14 -81016194#6" id="veh11_route"/>
    <vehicle depart="9.77" departLane="best" departPos="random_free" departSpeed="max" id="veh11" route="veh11_route" type="veh_passenger"/>
    <route edges="682416256#2 682416273 82626320#1 82626320#2 393913113#5 379044918#4 393913112#0 393913112#1 393913112#2 393913112#3 393913112#4 379077646#0 379077646#1 379077646#2 379077652#0 379077655#0" id="veh12_route"/>
    <vehicle depart="10.66" departLane="best" departPos="random_free" departSpeed="max" id="veh12" route="veh12_route" type="veh_passenger"/>
    <route edges="554923672#3 -699769335#3 -699769335#2 -699769335#1 -156599622#31 -156599622#30 -156599622#29 -156599622#28 554923670#15 554923670#16 554923670#17 554923670#18 554923670#19 554923670#20 509710165#8 509710165#9 509710165#10 509710165#11 156331318#0 156331318#1 156331318#2 156331318#3 502804523#3" id="veh13_route"/>
    <vehicle depart="11.55" departLane="best" departPos="random_free" departSpeed="max" id="veh13" route="veh13_route" type="veh_passenger"/>
    <route edges="318729242#12 318729242#13 318729242#14 318729242#15 318729242#16 318729242#17 318729242#18 585392812#0 585392812#1 497330224#1 497330224#2 497330224#3 497330224#4 497330224#5 497330224#6 187927820 472039978#0 472039978#1 472039977#0 472039977#1 472039977#2 472039977#3 472039977#4 472039977#5 472039977#6 285405920 82626318#0 -82626377#3" id="veh14_route"/>
    <vehicle depart="12.44" departLane="best" departPos="random_free" departSpeed="max" id="veh14" route="veh14_route" type="veh_passenger"/>
    <route edges="-82626317#4 -82626317#3 -82626317#2 -82626317#1 -82626317#0 -82626377#1 -82626377#0 -379044918#4 -393913113#5 -82626320#2 -82626320#1 472039969#0 -378849587" id="veh15_route"/>
    <vehicle depart="13.33" departLane="best" departPos="random_free" departSpeed="max" id="veh15" route="veh15_route" type="veh_passenger"/>
    <route edges="682918006#0 472039968#1 472039968#2 472039968#3 156599622#2 156599622#3 156599622#4 156599622#5 156599622#7 156599622#8 156599622#9 156599622#10 156599622#11 156599622#13 156599622#14 156599622#15 156599622#16 156599622#17 378886811#1 378886811#2 378886811#3 378886811#4 378886811#5 378886811#6" id="veh17_route"/>
    <vehicle depart="15.10" departLane="best" departPos="random_free" departSpeed="max" id="veh17" route="veh17_route" type="veh_passenger"/>
    <route edges="472039968#3 684064524#1 682416273 165477494 472039970 187927816 187927841 493199549#0 493199549#1 493199549#2 493199549#3 493199549#4 493199549#5 472039976#0 472039976#1 187927823 187927803#0 187927803#1 187927803#2 187927803#3 187927803#4 187927803#5 497330224#0 497330224#1 -815177645 -807675777 165477493#2 165477493#3 -165477485#4 -165477485#3 -165477485#2 -165477485#1 -165477485#0" id="veh18_route"/>
    <vehicle depart="15.99" departLane="best" departPos="random_free" departSpeed="max" id="veh18" route="veh18_route" type="veh_passenger"/>
    <route edges="468684045#3 468684045#4 468684045#5 468684045#6 -318705784 -318705785 -509379760 -509379757#1 -509379757#0 -502804525#1 -502804525#0 -509710150#3 -509710150#2 -503694063#2 509710132 503694065#0 503694065#2 -82586453#4 -82586453#3 -82586453#2 -596247089#1 -596247089#0" id="veh19_route"/>
    <vehicle depart="16.88" departLane="best" departPos="random_free" departSpeed="max" id="veh19" route="veh19_route" type="veh_passenger"/>
    <route edges="-318729235#1 381662621#0 381662621#1 807926108#0 807926108#1 82586464#1 -82586444#3 -82586444#2 -82586444#1 -82586444#0 -82586450#0 -318729246#1 -318729246#0 -318729245 -81016190 682416274 -81016194#29 -81016194#28 -81016194#27 -81016194#26 -81016194#24 -81016194#23 -554923670#7 -554923670#6 -554923670#5 -554923670#4 -554923670#3 706569283 706569284 82586459#1 -815630767 379077699 815630769 -156331315#4 379077689#4 379077689#5 -472039973#7 -472039973#6" id="veh20_route"/>
    <vehicle depart="17.77" departLane="best" departPos="random_free" departSpeed="max" id="veh20" route="veh20_route" type="veh_passenger"/>
    <route edges="-378849581#5 -378849581#4 -378849581#2 682416266#1 682416266#2 682928202#0 682928202#1 686527168#0 686527168#1 686527168#2 684774919#0 684774919#1 684774919#2 684774918#0 684774918#1 684774918#2 684774918#3 684774918#6 684774918#7 684774918#8 684774918#9 -509710161#5 -509710161#4 -509710161#3 -509710161#2 -509710161#1 -509710155#1 -514652461 -38609685#9 -38609685#8 -38609685#7 -38609685#6 -38609685#5 -38609685#4 -38609685#3 -38609685#2 -38609685#1 -38609685#0 -682097998#2 -682097998#1 -682097998#0 -38657768 -554922638#2 -554922638#1 -554922638#0 -562497121#5" id="veh21_route"/>
    <vehicle depart="18.66" departLane="best" departPos="random_free" departSpeed="max" id="veh21" route="veh21_route" type="veh_passenger"/>
    <route edges="381662624 -381662623#0 -82586444#0 381662625#0 -82626304#3 -82626304#2 -82626304#1 -82626304#0" id="veh22_route"/>
    <vehicle depart="19.55" departLane="best" departPos="random_free" departSpeed="max" id="veh22" route="veh22_route" type="veh_passenger"/>
    <route edges="-82586459#5 -156331315#5 -156331315#4 -156331315#3 82626326#2 -472039973#5 -472039973#4 -472039973#3 -472039973#2 -472039973#0 -82626397 -59254860#19 -59254860#18 -59254860#17 -59254860#16 -59254860#15 -59254860#14 -59254860#13 -59254860#12 -59254860#11 -59254860#10 -59254860#9 -59254860#6 -59254860#5 -59254860#4 -59254860#3 -59254860#2 -59254860#1 -59254860#0 -509710161#5 -509710161#4 -509710161#3 -509710161#2 -509710161#1 -509710155#1 -514652461 -38609685#9 -38609685#8 -38609685#7 -38609685#6 -38609685#5" id="veh23_route"/>
    <vehicle depart="20.44" departLane="best" departPos="random_free" departSpeed="max" id="veh23" route="veh23_route" type="veh_passenger"/>
    <route edges="554923670#17 554923670#18 554923670#19 554923670#20 509710165#8 509710165#9 509710165#10 509710165#11 509710165#12 509710165#15 509710165#16 509710165#17 509710165#18 509710165#19 684162598#1 684162598#2 361753485#0 361753485#1 361753485#4 -815630762 378875738#2 815630761#0" id="veh24_route"/>
    <vehicle depart="21.32" departLane="best" departPos="random_free" departSpeed="max" id="veh24" route="veh24_route" type="veh_passenger"/>
    <route edges="381676464#0 381676464#1 187927721#11 187927721#12 286266779#1 286266779#2 286266778#0 286266778#1 286266778#2 286266778#3 286266778#4 286266778#5 286266778#6 286266778#7 286266778#8 286266778#9 286266778#10 286266778#11 286266778#12 286266778#13 497330224#6 187927820 472039978#0 472039978#1 472073229#0 472073229#1 82586459#1 -815630767 379077699" id="veh25_route"/>
    <vehicle depart="22.21" departLane="best" departPos="random_free" departSpeed="max" id="veh25" route="veh25_route" type="veh_passenger"/>
    <route edges="381200935#0 381200935#1 807905763 381200936#0 381200936#1 468684045#3 468684045#4 468684045#5 468684045#6 -318705784 -318705785 -509379760 -509379757#1 -509379757#0 -502804525#1 -502804525#0 -509710150#3 -509710150#2 -503694063#2 509710132 503694065#0 503694065#2 502804523#1" id="veh26_route"/>
    <vehicle depart="23.10" departLane="best" departPos="random_free" departSpeed="max" id="veh26" route="veh26_route" type="veh_passenger"/>
    <route edges="-379863868 -813795155 379863865#0 379863865#1 -82209418#12 -82209418#11 -82209418#10 -82209418#8 -82209418#7 -82209418#6 -82209418#5 -82209418#4 -82209418#3 -82209418#2 -82209418#1 -82209418#0 59254860#16 59254860#17 59254860#18 59254860#19 82626397 472039973#0 472039973#2 472039973#3 393913113#0 393913113#1 -82626353#3" id="veh27_route"/>
    <vehicle depart="23.99" departLane="best" departPos="random_free" departSpeed="max" id="veh27" route="veh27_route" type="veh_passenger"/>
    <route edges="82905076#1 38609562#2 38609562#3 38609562#4 809069416 682097999#0 682097999#1 37895049#0 37895049#1 37895049#2 37895049#3 37895049#4 37895049#6 37895049#7 37895049#8 37895049#9 37895049#11 37895049#13 37895049#14 554923669#0 554923669#1 502804524#0 502804524#3 502804524#4 -554923670#20 -554923670#19 -554923670#18 -554923670#17 -554923670#16 -554923670#15 -554923670#12 -554923670#11 -554923670#10 -554923670#7 -554923670#6 82209418#10 82209418#11 82209418#12 82209418#13 82209418#14 1046738887 318729218 318729205 286266779#2 286266779#3 286266779#4 286266779#5 286266779#0 -187927721#12 -187927721#11 -187927721#10 381676459#0 381676459#1 381676459#2" id="veh28_route"/>
    <vehicle depart="24.88" departLane="best" departPos="random_free" departSpeed="max" id="veh28" route="veh28_route" type="veh_passenger"/>
    <route edges="378849580 -378849581#6 -378849581#5 -378849581#4 -378849581#2 682416266#1 682416266#2 682928202#0 682928202#1 686527168#0 686527168#1 686527168#2 684774919#0 684774919#1 684774919#2 684774918#0 684774918#1 684774918#2 684774918#3 684774918#6 684774918#7 684774918#8 684774918#9 -509710161#5 -509710161#4 -509710161#3 -509710161#2 -509710161#1 -509710155#1 514652460#0 514652460#1 253020208 554923668#0 554923668#1 1230324394#0 1230324394#1 253020204 682645253 509710141 509379758 83335330 1230114646#0 1230114646#1 318699985#0 318699985#1 381200938 -381200934#0 468684045#1" id="veh29_route"/>
    <vehicle depart="25.77" departLane="best" departPos="random_free" departSpeed="max" id="veh29" route="veh29_route" type="veh_passenger"/>
    <route edges="-629778311#0 -699769335#3 -699769335#2 -699769335#1 -156599622#31 -156599622#30 -156599622#29 -156599622#28 554923670#15 554923670#16 554923670#17 554923670#18 554923670#19 554923670#20 -502804524#4 -502804524#3 -502804524#2 -503694063#2 509710132 503694065#0 503694065#2 -81163819#10 -81163819#9 -81163819#5 -81163819#3 -81163819#2 -81163819#1 -509710155#1 514652460#0 514652460#1 554922643" id="veh30_route"/>
    <vehicle depart="26.66" departLane="best" departPos="random_free" departSpeed="max" id="veh30" route="veh30_route" type="veh_passenger"/>
    <route edges="468684045#6 -318705784 -318705785 -509379760 -509379757#1 -509379757#0 -502804525#1 -502804525#0 -509710150#3 -509710150#2 502804524#0 502804524#3 502804524#4 -554923670#20 -554923670#19 -554923670#18 -554923670#17 -554923670#16 -554923670#15 -156599622#26 -156599622#25 -156599622#24 -156599622#23 -156599622#22 -156599622#20 -156599622#19 -156599622#18 -156599622#17 -156599622#16 -156599622#15 -156599622#14 -156599622#13 -156599622#11 -156599622#10 -156599622#9 -156599622#8 -156599622#7 -156599622#5 -156599622#4 -156599622#3 -156599622#2 156599653#1 156599653#2 682918009 682918014#6 682918014#7 682918014#8 472039962#1 -156599658#6 -156599658#5" id="veh31_route"/>
    <vehicle depart="27.54" departLane="best" departPos="random_free" departSpeed="max" id="veh31" route="veh31_route" type="veh_passenger"/>
    <route edges="-685069352#3 82626360#0 82626360#1 -318729196#0 -318729270 509710165#0 509710165#1 509710165#2 509710165#3 509710165#4 509710165#5 509710165#6 509710165#7 -554923670#20 -554923670#19 -554923670#18" id="veh32_route"/>
    <vehicle depart="28.43" departLane="best" departPos="random_free" departSpeed="max" id="veh32" route="veh32_route" type="veh_passenger"/>
    <route edges="38609390#1 38609390#2 38609390#3 318699973 38609387#0 38609387#1 38609387#2 38609387#3 -82905057 37895049#7 37895049#8 37895049#9 37895049#11 37895049#13 37895049#14 554923669#0 554923669#1 502804524#0 502804524#3 502804524#4 -554923670#20 -554923670#19 -554923670#18 -554923670#17 -554923670#16 -554923670#15 -554923670#12 -554923670#11 -554923670#10 -554923670#7 -554923670#6 82209418#10 82209418#11 82209418#12 82209418#13" id="veh33_route"/>
    <vehicle depart="29.32" departLane="best" departPos="random_free" departSpeed="max" id="veh33" route="veh33_route" type="veh_passenger"/>
    <route edges="684774918#0 684774918#1 684774918#2 684774918#3 684774918#6 684774918#7 684774918#8 684774918#9 59254860#0 59254860#1 59254860#2 59254860#3 59254860#4 59254860#5 59254860#6 59254860#9 59254860#10 59254860#11 59254860#12 59254860#13 59254860#14 59254860#15 59254860#16 59254860#17 59254860#18 59254860#19 82626397 472039972#0 472039972#1 472039972#2 493199549#0 493199549#1 493199549#2 493199549#3 493199549#4 493199549#5 472039976#0 472039976#1 187927823 187927803#0 187927803#1 187927803#2 187927803#3 187927803#4 187927803#5 497330224#0 497330224#1 -815177645 -807675777" id="veh34_route"/>
    <vehicle depart="30.21" departLane="best" departPos="random_free" departSpeed="max" id="veh34" route="veh34_route" type="veh_passenger"/>
    <route edges="381695260#7 381695263#0 381695263#1 165477491#4 82626335#1 82626335#2 82626335#3 82626335#4 82626335#5 286266779#5 286266779#0 286266779#1 -318729205 -318729218 -1046738887 -82209418#14 -82209418#13 -82209418#12 -82209418#11 -82209418#10 554923670#6 554923670#7 554923670#10 554923670#11 554923670#12 554923670#15 554923670#16 554923670#17 554923670#18 554923670#19 554923670#20 -502804524#4 -502804524#3 -502804524#2 -1230107746#2 -554923669#0 -37895049#14 -37895049#13 253020207#0 253020207#1 253020207#2 253020207#3 253020207#4 514652459#0 378869331#0 378869331#1 378869331#2 378869331#3 378869331#4 82905058#0" id="veh35_route"/>
    <vehicle depart="31.10" departLane="best" departPos="random_free" departSpeed="max" id="veh35" route="veh35_route" type="veh_passenger"/>
    <route edges="81016194#0 81016194#1 81016194#2 81016194#3 81016194#4 81016194#5 81016194#6 59254860#14 59254860#15 82209418#0 82209418#1 82209418#2 82209418#3 82209418#4 82209418#5 82209418#6 82209418#7 82209418#8 82209418#10 82209418#11 82209418#12 82209418#13 82209418#14 1046738887 318729218 318729205 286266779#2 286266779#3 286266783#0 286266783#1 -381695262#1 -381695262#0 165477493#0 165477493#1 165477493#2 165477493#3 815177642 815177641#0 165477483#2" id="veh36_route"/>
    <vehicle depart="31.99" departLane="best" departPos="random_free" departSpeed="max" id="veh36" route="veh36_route" type="veh_passenger"/>
    <route edges="554923670#15 554923670#16 554923670#17 554923670#18 554923670#19 554923670#20 -502804524#4 -502804524#3" id="veh37_route"/>
    <vehicle depart="32.88" departLane="best" departPos="random_free" departSpeed="max" id="veh37" route="veh37_route" type="veh_passenger"/>
    <route edges="378869313#1 -82897279#1 -82897279#0 38609685#7 38609685#8 38609685#9 514652461 509710155#1 81163819#1 81163819#2 81163819#3 81163819#4 81163819#8 81163819#10 502804523#1 502804523#3 502804523#4 502804523#5 502804523#6 503694063#0 502804524#0 502804524#3 502804524#4 -554923670#20 -554923670#19 -554923670#18 -554923670#17 -554923670#16 -554923670#15 -554923670#12 -554923670#11" id="veh38_route"/>
    <vehicle depart="33.76" departLane="best" departPos="random_free" departSpeed="max" id="veh38" route="veh38_route" type="veh_passenger"/>
    <route edges="378886819#4 378886819#5 378886821#1 378886821#2 378886821#3 378886821#4 81016194#27 -379863866#1 -379863866#0 379863867#0 379863867#1 82209418#14 1046738887 318729218 318729205 286266779#2 286266779#3 286266783#0 286266783#1 -381695262#1 -381695262#0 165477493#0 165477493#1 807675777 807675778#0" id="veh39_route"/>
    <vehicle depart="34.65" departLane="best" departPos="random_free" departSpeed="max" id="veh39" route="veh39_route" type="veh_passenger"/>
    <route edges="-82905031#2 82905076#1 38609562#2 -38609377#1 -38609377#0 -378310188#1 -378310188#0 475755508#1 475755508#2 318699977 318699983#0 -81175758#1 -81175758#0 509710135#0 509710135#1 81163820#1 509379760 318705785 318705784 82897277#0 82897277#1 82586460#0 82586460#1 699062006#2 -393913816" id="veh40_route"/>
    <vehicle depart="35.54" departLane="best" departPos="random_free" departSpeed="max" id="veh40" route="veh40_route" type="veh_passenger"/>
    <route edges="929197046#0 929197046#1 379072975 379072976#0 379072976#1 916121938#0 916121938#1 -916121938#1 -916121938#0 -379072976#1 -379072976#0 -379072975 682416259 361922208 682416258#0 682416258#1 472039968#0 472039968#1 472039968#2 472039968#3 156599622#2 156599622#3 156599622#4 156599622#5 156599622#7 156599622#8 156599622#9 156599622#10 156599622#11 -59254860#6 -59254860#5 -59254860#4 -59254860#3 -59254860#2 -59254860#1 -59254860#0 -509710161#5 -509710161#4 -509710161#3 -509710161#2 -509710161#1 -509710155#1 514652460#0 514652460#1 253020208 554923668#0 554923668#1 1230324394#0 1230324394#1 253020204 682645253 318729233#0 318729233#1 682645246 318729231" id="veh41_route"/>
    <vehicle depart="36.43" departLane="best" departPos="random_free" departSpeed="max" id="veh41" route="veh41_route" type="veh_passenger"/>
    <route edges="-318729270 682416275#4 682416263#1 682416263#2 81016190 318729245 318729246#0 82626360#9 82626360#10 82626360#11 82626360#12 82626360#13 82626360#14 187927721#0 187927721#1 187927721#2 187927721#3 187927721#4 187927721#5 187927721#7 187927721#8 187927721#10 187927721#11 187927721#12 286266779#1 286266779#2 286266778#0 286266778#1 286266778#2 286266778#3 286266778#4 286266778#5 286266778#6 286266778#7 286266778#8 286266778#9 286266778#10 286266778#11 381695266 -165477488#3 -165477488#1 -165477488#0" id="veh42_route"/>
    <vehicle depart="37.32" departLane="best" departPos="random_free" departSpeed="max" id="veh42" route="veh42_route" type="veh_passenger"/>
    <route edges="-378875686#2 -378875686#1 -378875686#0 37895049#1 37895049#2 37895049#3 37895049#4 37895049#6 37895049#7 37895049#8 37895049#9 37895049#11 37895049#13 37895049#14 554923669#0 554923669#1 502804524#0 502804524#3 502804524#4 -554923670#20 -554923670#19 -554923670#18 -554923670#17 -554923670#16 -554923670#15 156599622#28 156599622#29 156599622#30 156599622#31 699769335#1 699769335#2 699769335#3 629778311#0 629778311#1 81016190 318729245 318729246#0 -82626360#8 -381662617#1 -381662617#0" id="veh43_route"/>
    <vehicle depart="38.21" departLane="best" departPos="random_free" departSpeed="max" id="veh43" route="veh43_route" type="veh_passenger"/>
    <route edges="554923670#11 554923670#12 -156599622#26 -156599622#25 -156599622#24 -156599622#23 -156599622#22 -156599622#20 -156599622#19 -156599622#18 -156599622#17 -156599622#16 -156599622#15 -156599622#14 -156599622#13 -156599622#11 -156599622#10" id="veh44_route"/>
    <vehicle depart="39.10" departLane="best" departPos="random_free" departSpeed="max" id="veh44" route="veh44_route" type="veh_passenger"/>
    <route edges="-285183328 -391671348#2 -381695285#4 -381695285#3 -381695285#2 -381695285#1 -381695285#0 -285405927#4 -285405927#3 -285405927#2 -285405927#1 -285405927#0 318729241#0 318729241#1 318729241#2 318729241#3 318729241#4 318729241#5 318729241#6 318729241#7 318729241#8 318729241#9 318729241#10 318729241#11 318729241#12 318729241#13 318729241#14 -318729246#1 -82626360#8 -82626360#7 -82626360#6 -82626360#5 -82626360#4 -82626360#3" id="veh45_route"/>
    <vehicle depart="39.98" departLane="best" departPos="random_free" departSpeed="max" id="veh45" route="veh45_route" type="veh_passenger"/>
    <route edges="86157949 682926374#0 -378849586#1 -378849586#0 81016194#0 81016194#1 81016194#2 81016194#3 81016194#4 81016194#5 81016194#6 59254860#14 59254860#15 82209418#0 82209418#1 82209418#2 82209418#3 82209418#4 82209418#5 82209418#6 82209418#7 82209418#8 82209418#10 82209418#11 82209418#12 82209418#13 82209418#14 1046738887 318729218 318729205 286266779#2 286266779#3 286266783#0 286266783#1 286266783#2 286266783#3 318729242#16 318729242#17 318729242#18" id="veh46_route"/>
    <vehicle depart="40.87" departLane="best" departPos="random_free" departSpeed="max" id="veh46" route="veh46_route" type="veh_passenger"/>
    <route edges="82626350 318729212#1 318729212#2 808343395#3 -628737044#4 -628737044#2 -628737044#1 -628737044#0 -318729196#3 -318729196#1 -318729196#0 -318729270 509710165#0 509710165#1 509710165#2 509710165#3 509710165#4 509710165#5 509710165#6 509710165#7 509710165#8 509710165#9 509710165#10 509710165#11 509710165#12 509710165#15 509710165#16 509710165#17 509710165#18 509710165#19 684162598#1 684162598#2 684162598#3 684162598#4 684162598#7 684162598#8 684162597#0 684162597#1 684162597#2" id="veh47_route"/>
    <vehicle depart="41.76" departLane="best" departPos="random_free" departSpeed="max" id="veh47" route="veh47_route" type="veh_passenger"/>
    <route edges="156599622#10 156599622#11 59254860#9 59254860#10 59254860#11 59254860#12 59254860#13 59254860#14 59254860#15 59254860#16 59254860#17 59254860#18 59254860#19 82626397 472039972#0 472039972#1 472039972#2 493199549#0 493199549#1" id="veh48_route"/>
    <vehicle depart="42.65" departLane="best" departPos="random_free" departSpeed="max" id="veh48" route="veh48_route" type="veh_passenger"/>
    <route edges="-554923670#17 -554923670#16 -554923670#15 -554923670#12 -554923670#11 -554923670#10 -554923670#7 -554923670#6 82209418#10 82209418#11 82209418#12 82209418#13 82209418#14 1046738887 318729218 318729205 286266779#2 286266779#3 286266783#0 286266783#1 286266783#2 -807727473#0 -381676461#0" id="veh49_route"/>
    <vehicle depart="43.54" departLane="best" departPos="random_free" departSpeed="max" id="veh49" route="veh49_route" type="veh_passenger"/>
    <route edges="378875688#1 378875688#2 -378875705#1 -378875705#0 37895049#8 37895049#9 37895049#11 37895049#13 37895049#14 554923669#0 554923669#1 502804524#0 502804524#3 502804524#4 -554923670#20 -554923670#19 -554923670#18 -554923670#17 -554923670#16 -554923670#15 156599622#28 156599622#29" id="veh50_route"/>
    <vehicle depart="44.43" departLane="best" departPos="random_free" departSpeed="max" id="veh50" route="veh50_route" type="veh_passenger"/>
    <route edges="-156603792#3 -156603792#2 -156603792#1 -156599622#5 -156599622#4 -156599622#3 -156599622#2 684064524#1 682416273 82626320#1 82626320#2 393913113#5 379044918#4 393913112#0 393913112#1 393913112#2 393913112#3 393913112#4 82626307#0 82626307#1 82626307#2 82626307#3 82626307#4" id="veh51_route"/>
    <vehicle depart="45.31" departLane="best" departPos="random_free" departSpeed="max" id="veh51" route="veh51_route" type="veh_passenger"/>
    <route edges="-286266778#9 -286266778#8 -286266778#7 -286266778#6 -286266778#5 -286266778#4 -286266778#3 -286266778#2 -286266778#1 -286266778#0 286266779#3 286266779#4 286266779#5 286266779#0 -187927721#12 -187927721#11 -187927721#10 -187927721#8 -187927721#7 -187927721#5 -187927721#4 -187927721#3 -187927721#2 -187927721#1 381676452#0 381676452#1 -381676454#3 -381676454#2" id="veh53_route"/>
    <vehicle depart="47.09" departLane="best" departPos="random_free" departSpeed="max" id="veh53" route="veh53_route" type="veh_passenger"/>
    <route edges="808343395#3 -628737044#4 -628737044#2 -628737044#1 -628737044#0 -318729196#3 -318729196#1 -318729196#0 -318729270 509710165#0 509710165#1 509710165#2 509710165#3 509710165#4 509710165#5 509710165#6 1336761667 -502804524#3 -502804524#2 -1230107746#2 -554923669#0 -37895049#14 -37895049#13 253020207#0 253020207#1 253020207#2 253020207#3 253020207#4 514652459#0 514652459#1 514652459#2 514652459#3 514652459#4 514652459#5 684772781#0 684772781#1 684772781#2 684772781#3" id="veh54_route"/>
    <vehicle depart="47.98" departLane="best" departPos="random_free" departSpeed="max" id="veh54" route="veh54_route" type="veh_passenger"/>