<?xml version="1.0" encoding="UTF-8"?>

<!-- generated on 2025-03-27 15:27:11.919791 by generateParkingAreas.py v1_20_0+0000-96efa4d36d6
<configuration>
    <net-file value="osm.net.xml"/>
    <output-file value="park.add.xml"/>
</configuration>
-->

<additional xmlns:xsi="http://www.w3.org/2001/XMLSchema-instance" xsi:noNamespaceSchemaLocation="http://sumo.dlr.de/xsd/additional_file.xsd">
    <parkingArea id="pa-1031883781" lane="-1031883781_0" roadsideCapacity="11" length="5"/>
    <parkingArea id="pa-1046738887" lane="-1046738887_0" roadsideCapacity="1" length="5"/>
    <parkingArea id="pa-1049235992#1" lane="-1049235992#1_0" roadsideCapacity="9" length="5"/>
    <parkingArea id="pa-1059857392" lane="-1059857392_0" roadsideCapacity="10" length="5"/>
    <parkingArea id="pa-1183902132#0" lane="-1183902132#0_0" roadsideCapacity="8" length="5"/>
    <parkingArea id="pa-1183902132#1" lane="-1183902132#1_0" roadsideCapacity="26" length="5"/>
    <parkingArea id="pa-1186451176" lane="-1186451176_0" roadsideCapacity="31" length="5"/>
    <parkingArea id="pa-1230107746#2" lane="-1230107746#2_0" roadsideCapacity="30" length="5"/>
    <parkingArea id="pa-1259366870#0" lane="-1259366870#0_0" roadsideCapacity="3" length="5"/>
    <parkingArea id="pa-1287596359" lane="-1287596359_0" roadsideCapacity="7" length="5"/>
    <parkingArea id="pa-1311001334#2" lane="-1311001334#2_0" roadsideCapacity="3" length="5"/>
    <parkingArea id="pa-1311001335#0" lane="-1311001335#0_0" roadsideCapacity="45" length="5"/>
    <parkingArea id="pa-1311001335#1" lane="-1311001335#1_0" roadsideCapacity="2" length="5"/>
    <parkingArea id="pa-1312919053#0" lane="-1312919053#0_0" roadsideCapacity="31" length="5"/>
    <parkingArea id="pa-1321592373#0" lane="-1321592373#0_0" roadsideCapacity="34" length="5"/>
    <parkingArea id="pa-1321592375" lane="-1321592375_0" roadsideCapacity="8" length="5"/>
    <parkingArea id="pa-1321592376" lane="-1321592376_0" roadsideCapacity="14" length="5"/>
    <parkingArea id="pa-1334437102" lane="-1334437102_0" roadsideCapacity="18" length="5"/>
    <parkingArea id="pa-156329858" lane="-156329858_0" roadsideCapacity="24" length="5"/>
    <parkingArea id="pa-156329875" lane="-156329875_0" roadsideCapacity="15" length="5"/>
    <parkingArea id="pa-156331312#0" lane="-156331312#0_0" roadsideCapacity="18" length="5"/>
    <parkingArea id="pa-156331312#1" lane="-156331312#1_0" roadsideCapacity="15" length="5"/>
    <parkingArea id="pa-156331312#3" lane="-156331312#3_0" roadsideCapacity="1" length="5"/>
    <parkingArea id="pa-156331312#4" lane="-156331312#4_0" roadsideCapacity="14" length="5"/>
    <parkingArea id="pa-156331313#1" lane="-156331313#1_0" roadsideCapacity="27" length="5"/>
    <parkingArea id="pa-156331313#2" lane="-156331313#2_0" roadsideCapacity="15" length="5"/>
    <parkingArea id="pa-156331313#3" lane="-156331313#3_0" roadsideCapacity="23" length="5"/>
    <parkingArea id="pa-156331315#0" lane="-156331315#0_0" roadsideCapacity="19" length="5"/>
    <parkingArea id="pa-156331315#1" lane="-156331315#1_0" roadsideCapacity="4" length="5"/>
    <parkingArea id="pa-156331315#2" lane="-156331315#2_0" roadsideCapacity="20" length="5"/>
    <parkingArea id="pa-156331315#3" lane="-156331315#3_0" roadsideCapacity="40" length="5"/>
    <parkingArea id="pa-156331315#4" lane="-156331315#4_0" roadsideCapacity="2" length="5"/>
    <parkingArea id="pa-156331315#5" lane="-156331315#5_0" roadsideCapacity="25" length="5"/>
    <parkingArea id="pa-156331316" lane="-156331316_0" roadsideCapacity="51" length="5"/>
    <parkingArea id="pa-156331318#0" lane="-156331318#0_0" roadsideCapacity="17" length="5"/>
    <parkingArea id="pa-156331318#1" lane="-156331318#1_0" roadsideCapacity="11" length="5"/>
    <parkingArea id="pa-156331318#2" lane="-156331318#2_0" roadsideCapacity="11" length="5"/>
    <parkingArea id="pa-156331318#3" lane="-156331318#3_0" roadsideCapacity="15" length="5"/>
    <parkingArea id="pa-156331320#0" lane="-156331320#0_0" roadsideCapacity="31" length="5"/>
    <parkingArea id="pa-156331320#1" lane="-156331320#1_0" roadsideCapacity="28" length="5"/>
    <parkingArea id="pa-156599622#10" lane="-156599622#10_0" roadsideCapacity="9" length="5"/>
    <parkingArea id="pa-156599622#11" lane="-156599622#11_0" roadsideCapacity="1" length="5"/>
    <parkingArea id="pa-156599622#13" lane="-156599622#13_0" roadsideCapacity="23" length="5"/>
    <parkingArea id="pa-156599622#14" lane="-156599622#14_0" roadsideCapacity="6" length="5"/>
    <parkingArea id="pa-156599622#15" lane="-156599622#15_0" roadsideCapacity="7" length="5"/>
    <parkingArea id="pa-156599622#16" lane="-156599622#16_0" roadsideCapacity="10" length="5"/>
    <parkingArea id="pa-156599622#19" lane="-156599622#19_0" roadsideCapacity="48" length="5"/>
    <parkingArea id="pa-156599622#2" lane="-156599622#2_0" roadsideCapacity="13" length="5"/>
    <parkingArea id="pa-156599622#22" lane="-156599622#22_0" roadsideCapacity="7" length="5"/>
    <parkingArea id="pa-156599622#23" lane="-156599622#23_0" roadsideCapacity="6" length="5"/>
    <parkingArea id="pa-156599622#24" lane="-156599622#24_0" roadsideCapacity="6" length="5"/>
    <parkingArea id="pa-156599622#25" lane="-156599622#25_0" roadsideCapacity="7" length="5"/>
    <parkingArea id="pa-156599622#28" lane="-156599622#28_0" roadsideCapacity="7" length="5"/>
    <parkingArea id="pa-156599622#30" lane="-156599622#30_0" roadsideCapacity="13" length="5"/>
    <parkingArea id="pa-156599622#4" lane="-156599622#4_0" roadsideCapacity="14" length="5"/>
    <parkingArea id="pa-156599622#5" lane="-156599622#5_0" roadsideCapacity="1" length="5"/>
    <parkingArea id="pa-156599622#7" lane="-156599622#7_0" roadsideCapacity="8" length="5"/>
    <parkingArea id="pa-156599622#8" lane="-156599622#8_0" roadsideCapacity="1" length="5"/>
    <parkingArea id="pa-156599622#9" lane="-156599622#9_0" roadsideCapacity="3" length="5"/>
    <parkingArea id="pa-156599634" lane="-156599634_0" roadsideCapacity="33" length="5"/>
    <parkingArea id="pa-156599643" lane="-156599643_0" roadsideCapacity="6" length="5"/>
    <parkingArea id="pa-156599655" lane="-156599655_0" roadsideCapacity="15" length="5"/>
    <parkingArea id="pa-156599656#0" lane="-156599656#0_0" roadsideCapacity="10" length="5"/>
    <parkingArea id="pa-156599656#1" lane="-156599656#1_0" roadsideCapacity="14" length="5"/>
    <parkingArea id="pa-156599658#1" lane="-156599658#1_0" roadsideCapacity="6" length="5"/>
    <parkingArea id="pa-156599658#2" lane="-156599658#2_0" roadsideCapacity="5" length="5"/>
    <parkingArea id="pa-156599658#3" lane="-156599658#3_0" roadsideCapacity="4" length="5"/>
    <parkingArea id="pa-156599658#4" lane="-156599658#4_0" roadsideCapacity="7" length="5"/>
    <parkingArea id="pa-156599658#5" lane="-156599658#5_0" roadsideCapacity="24" length="5"/>
    <parkingArea id="pa-156603785#0" lane="-156603785#0_0" roadsideCapacity="17" length="5"/>
    <parkingArea id="pa-156603785#1" lane="-156603785#1_0" roadsideCapacity="4" length="5"/>
    <parkingArea id="pa-156603785#2" lane="-156603785#2_0" roadsideCapacity="16" length="5"/>
    <parkingArea id="pa-156603787#0" lane="-156603787#0_0" roadsideCapacity="4" length="5"/>
    <parkingArea id="pa-156603787#1" lane="-156603787#1_0" roadsideCapacity="16" length="5"/>
    <parkingArea id="pa-156603788" lane="-156603788_0" roadsideCapacity="15" length="5"/>
    <parkingArea id="pa-156603789" lane="-156603789_0" roadsideCapacity="4" length="5"/>
    <parkingArea id="pa-156603792#1" lane="-156603792#1_0" roadsideCapacity="3" length="5"/>
    <parkingArea id="pa-156603792#2" lane="-156603792#2_0" roadsideCapacity="3" length="5"/>
    <parkingArea id="pa-156603792#3" lane="-156603792#3_0" roadsideCapacity="8" length="5"/>
    <parkingArea id="pa-156603792#4" lane="-156603792#4_0" roadsideCapacity="6" length="5"/>
    <parkingArea id="pa-156603793#1" lane="-156603793#1_0" roadsideCapacity="1" length="5"/>
    <parkingArea id="pa-156603793#2" lane="-156603793#2_0" roadsideCapacity="20" length="5"/>
    <parkingArea id="pa-156603793#3" lane="-156603793#3_0" roadsideCapacity="4" length="5"/>
    <parkingArea id="pa-156603793#4" lane="-156603793#4_0" roadsideCapacity="5" length="5"/>
    <parkingArea id="pa-156603793#5" lane="-156603793#5_0" roadsideCapacity="4" length="5"/>
    <parkingArea id="pa-156603793#6" lane="-156603793#6_0" roadsideCapacity="4" length="5"/>
    <parkingArea id="pa-156603793#8" lane="-156603793#8_0" roadsideCapacity="24" length="5"/>
    <parkingArea id="pa-156603795#1" lane="-156603795#1_0" roadsideCapacity="3" length="5"/>
    <parkingArea id="pa-156603795#2" lane="-156603795#2_0" roadsideCapacity="3" length="5"/>
    <parkingArea id="pa-156603795#3" lane="-156603795#3_0" roadsideCapacity="10" length="5"/>
    <parkingArea id="pa-156603795#4" lane="-156603795#4_0" roadsideCapacity="4" length="5"/>
    <parkingArea id="pa-156603796" lane="-156603796_0" roadsideCapacity="3" length="5"/>
    <parkingArea id="pa-156603797" lane="-156603797_0" roadsideCapacity="20" length="5"/>
    <parkingArea id="pa-156603798#0" lane="-156603798#0_0" roadsideCapacity="3" length="5"/>
    <parkingArea id="pa-156603798#1" lane="-156603798#1_0" roadsideCapacity="12" length="5"/>
    <parkingArea id="pa-156603798#2" lane="-156603798#2_0" roadsideCapacity="4" length="5"/>
    <parkingArea id="pa-156603799#1" lane="-156603799#1_0" roadsideCapacity="9" length="5"/>
    <parkingArea id="pa-156603799#10" lane="-156603799#10_0" roadsideCapacity="7" length="5"/>
    <parkingArea id="pa-156603799#11" lane="-156603799#11_0" roadsideCapacity="7" length="5"/>
    <parkingArea id="pa-156603799#12" lane="-156603799#12_0" roadsideCapacity="10" length="5"/>
    <parkingArea id="pa-156603799#14" lane="-156603799#14_0" roadsideCapacity="10" length="5"/>
    <parkingArea id="pa-156603799#2" lane="-156603799#2_0" roadsideCapacity="12" length="5"/>
    <parkingArea id="pa-156603799#3" lane="-156603799#3_0" roadsideCapacity="3" length="5"/>
    <parkingArea id="pa-156603799#4" lane="-156603799#4_0" roadsideCapacity="9" length="5"/>
    <parkingArea id="pa-156603799#5" lane="-156603799#5_0" roadsideCapacity="4" length="5"/>
    <parkingArea id="pa-156603799#6" lane="-156603799#6_0" roadsideCapacity="4" length="5"/>
    <parkingArea id="pa-156603799#7" lane="-156603799#7_0" roadsideCapacity="10" length="5"/>
    <parkingArea id="pa-156603799#8" lane="-156603799#8_0" roadsideCapacity="1" length="5"/>
    <parkingArea id="pa-156603799#9" lane="-156603799#9_0" roadsideCapacity="7" length="5"/>
    <parkingArea id="pa-156603801" lane="-156603801_0" roadsideCapacity="16" length="5"/>
    <parkingArea id="pa-156603804#0" lane="-156603804#0_0" roadsideCapacity="10" length="5"/>
    <parkingArea id="pa-156603804#1" lane="-156603804#1_0" roadsideCapacity="5" length="5"/>
    <parkingArea id="pa-156603805#0" lane="-156603805#0_0" roadsideCapacity="4" length="5"/>
    <parkingArea id="pa-156603805#1" lane="-156603805#1_0" roadsideCapacity="3" length="5"/>
    <parkingArea id="pa-156603805#2" lane="-156603805#2_0" roadsideCapacity="24" length="5"/>
    <parkingArea id="pa-156603805#3" lane="-156603805#3_0" roadsideCapacity="3" length="5"/>
    <parkingArea id="pa-156603805#4" lane="-156603805#4_0" roadsideCapacity="4" length="5"/>
    <parkingArea id="pa-165477483#0" lane="-165477483#0_0" roadsideCapacity="9" length="5"/>
    <parkingArea id="pa-165477483#1" lane="-165477483#1_0" roadsideCapacity="5" length="5"/>
    <parkingArea id="pa-165477483#2" lane="-165477483#2_0" roadsideCapacity="7" length="5"/>
    <parkingArea id="pa-165477484" lane="-165477484_0" roadsideCapacity="6" length="5"/>
    <parkingArea id="pa-165477485#0" lane="-165477485#0_0" roadsideCapacity="3" length="5"/>
    <parkingArea id="pa-165477485#1" lane="-165477485#1_0" roadsideCapacity="2" length="5"/>
    <parkingArea id="pa-165477485#2" lane="-165477485#2_0" roadsideCapacity="3" length="5"/>
    <parkingArea id="pa-165477485#3" lane="-165477485#3_0" roadsideCapacity="4" length="5"/>
    <parkingArea id="pa-165477485#4" lane="-165477485#4_0" roadsideCapacity="2" length="5"/>
    <parkingArea id="pa-165477488#0" lane="-165477488#0_0" roadsideCapacity="10" length="5"/>
    <parkingArea id="pa-165477488#1" lane="-165477488#1_0" roadsideCapacity="7" length="5"/>
    <parkingArea id="pa-165477488#3" lane="-165477488#3_0" roadsideCapacity="7" length="5"/>
    <parkingArea id="pa-165477489#0" lane="-165477489#0_0" roadsideCapacity="14" length="5"/>
    <parkingArea id="pa-165477489#1" lane="-165477489#1_0" roadsideCapacity="2" length="5"/>
    <parkingArea id="pa-165477489#2" lane="-165477489#2_0" roadsideCapacity="6" length="5"/>
    <parkingArea id="pa-165477489#3" lane="-165477489#3_0" roadsideCapacity="2" length="5"/>
    <parkingArea id="pa-165477489#4" lane="-165477489#4_0" roadsideCapacity="2" length="5"/>
    <parkingArea id="pa-165477489#5" lane="-165477489#5_0" roadsideCapacity="3" length="5"/>
    <parkingArea id="pa-165477490#0" lane="-165477490#0_0" roadsideCapacity="9" length="5"/>
    <parkingArea id="pa-165477490#1" lane="-165477490#1_0" roadsideCapacity="6" length="5"/>
    <parkingArea id="pa-165477491#0" lane="-165477491#0_0" roadsideCapacity="7" length="5"/>
    <parkingArea id="pa-165477491#1" lane="-165477491#1_0" roadsideCapacity="6" length="5"/>
    <parkingArea id="pa-165477491#2" lane="-165477491#2_0" roadsideCapacity="5" length="5"/>
    <parkingArea id="pa-165477491#3" lane="-165477491#3_0" roadsideCapacity="6" length="5"/>
    <parkingArea id="pa-165477491#4" lane="-165477491#4_0" roadsideCapacity="2" length="5"/>
    <parkingArea id="pa-165477492" lane="-165477492_0" roadsideCapacity="26" length="5"/>
    <parkingArea id="pa-165477493#0" lane="-165477493#0_0" roadsideCapacity="11" length="5"/>
    <parkingArea id="pa-165477493#1" lane="-165477493#1_0" roadsideCapacity="4" length="5"/>
    <parkingArea id="pa-165477493#2" lane="-165477493#2_0" roadsideCapacity="1" length="5"/>
    <parkingArea id="pa-165477493#3" lane="-165477493#3_0" roadsideCapacity="8" length="5"/>
    <parkingArea id="pa-165477524#0" lane="-165477524#0_0" roadsideCapacity="2" length="5"/>
    <parkingArea id="pa-165477524#1" lane="-165477524#1_0" roadsideCapacity="2" length="5"/>
    <parkingArea id="pa-165477524#2" lane="-165477524#2_0" roadsideCapacity="1" length="5"/>
    <parkingArea id="pa-165477524#5" lane="-165477524#5_0" roadsideCapacity="6" length="5"/>
    <parkingArea id="pa-187927721#0" lane="-187927721#0_0" roadsideCapacity="5" length="5"/>
    <parkingArea id="pa-187927721#1" lane="-187927721#1_0" roadsideCapacity="6" length="5"/>
    <parkingArea id="pa-187927721#10" lane="-187927721#10_0" roadsideCapacity="11" length="5"/>
    <parkingArea id="pa-187927721#11" lane="-187927721#11_0" roadsideCapacity="15" length="5"/>
    <parkingArea id="pa-187927721#12" lane="-187927721#12_0" roadsideCapacity="1" length="5"/>
    <parkingArea id="pa-187927721#2" lane="-187927721#2_0" roadsideCapacity="7" length="5"/>
    <parkingArea id="pa-187927721#3" lane="-187927721#3_0" roadsideCapacity="10" length="5"/>
    <parkingArea id="pa-187927721#4" lane="-187927721#4_0" roadsideCapacity="9" length="5"/>
    <parkingArea id="pa-187927721#5" lane="-187927721#5_0" roadsideCapacity="19" length="5"/>
    <parkingArea id="pa-187927721#7" lane="-187927721#7_0" roadsideCapacity="20" length="5"/>
    <parkingArea id="pa-187927721#8" lane="-187927721#8_0" roadsideCapacity="6" length="5"/>
    <parkingArea id="pa-249663663#1" lane="-249663663#1_0" roadsideCapacity="15" length="5"/>
    <parkingArea id="pa-249663663#2" lane="-249663663#2_0" roadsideCapacity="13" length="5"/>
    <parkingArea id="pa-249663663#3" lane="-249663663#3_0" roadsideCapacity="13" length="5"/>
    <parkingArea id="pa-249663663#4" lane="-249663663#4_0" roadsideCapacity="8" length="5"/>
    <parkingArea id="pa-249663664#1" lane="-249663664#1_0" roadsideCapacity="15" length="5"/>
    <parkingArea id="pa-249663664#2" lane="-249663664#2_0" roadsideCapacity="12" length="5"/>
    <parkingArea id="pa-249663664#3" lane="-249663664#3_0" roadsideCapacity="13" length="5"/>
    <parkingArea id="pa-249663664#4" lane="-249663664#4_0" roadsideCapacity="8" length="5"/>
    <parkingArea id="pa-249663666#0" lane="-249663666#0_0" roadsideCapacity="7" length="5"/>
    <parkingArea id="pa-284399867" lane="-284399867_0" roadsideCapacity="14" length="5"/>
    <parkingArea id="pa-284601327" lane="-284601327_0" roadsideCapacity="11" length="5"/>
    <parkingArea id="pa-284637917#0" lane="-284637917#0_0" roadsideCapacity="1" length="5"/>
    <parkingArea id="pa-284637917#1" lane="-284637917#1_0" roadsideCapacity="18" length="5"/>
    <parkingArea id="pa-284637917#2" lane="-284637917#2_0" roadsideCapacity="24" length="5"/>
    <parkingArea id="pa-285183173" lane="-285183173_0" roadsideCapacity="31" length="5"/>
    <parkingArea id="pa-285183328" lane="-285183328_0" roadsideCapacity="18" length="5"/>
    <parkingArea id="pa-285405920" lane="-285405920_0" roadsideCapacity="4" length="5"/>
    <parkingArea id="pa-285405927#0" lane="-285405927#0_0" roadsideCapacity="11" length="5"/>
    <parkingArea id="pa-285405927#1" lane="-285405927#1_0" roadsideCapacity="26" length="5"/>
    <parkingArea id="pa-285405927#2" lane="-285405927#2_0" roadsideCapacity="1" length="5"/>
    <parkingArea id="pa-285405927#3" lane="-285405927#3_0" roadsideCapacity="29" length="5"/>
    <parkingArea id="pa-285405927#4" lane="-285405927#4_0" roadsideCapacity="32" length="5"/>
    <parkingArea id="pa-285405927#5" lane="-285405927#5_0" roadsideCapacity="13" length="5"/>
    <parkingArea id="pa-286266778#0" lane="-286266778#0_0" roadsideCapacity="23" length="5"/>
    <parkingArea id="pa-286266778#1" lane="-286266778#1_0" roadsideCapacity="14" length="5"/>
    <parkingArea id="pa-286266778#10" lane="-286266778#10_0" roadsideCapacity="7" length="5"/>
    <parkingArea id="pa-286266778#11" lane="-286266778#11_0" roadsideCapacity="3" length="5"/>
    <parkingArea id="pa-286266778#12" lane="-286266778#12_0" roadsideCapacity="6" length="5"/>
    <parkingArea id="pa-286266778#13" lane="-286266778#13_0" roadsideCapacity="25" length="5"/>
    <parkingArea id="pa-286266778#2" lane="-286266778#2_0" roadsideCapacity="2" length="5"/>
    <parkingArea id="pa-286266778#3" lane="-286266778#3_0" roadsideCapacity="2" length="5"/>
    <parkingArea id="pa-286266778#4" lane="-286266778#4_0" roadsideCapacity="2" length="5"/>
    <parkingArea id="pa-286266778#5" lane="-286266778#5_0" roadsideCapacity="2" length="5"/>
    <parkingArea id="pa-286266778#6" lane="-286266778#6_0" roadsideCapacity="1" length="5"/>
    <parkingArea id="pa-286266778#7" lane="-286266778#7_0" roadsideCapacity="4" length="5"/>
    <parkingArea id="pa-286266778#8" lane="-286266778#8_0" roadsideCapacity="2" length="5"/>
    <parkingArea id="pa-286266778#9" lane="-286266778#9_0" roadsideCapacity="3" length="5"/>
    <parkingArea id="pa-318577565#0" lane="-318577565#0_0" roadsideCapacity="20" length="5"/>
    <parkingArea id="pa-318577565#1" lane="-318577565#1_0" roadsideCapacity="6" length="5"/>
    <parkingArea id="pa-318577565#2" lane="-318577565#2_0" roadsideCapacity="7" length="5"/>
    <parkingArea id="pa-318577565#3" lane="-318577565#3_0" roadsideCapacity="10" length="5"/>
    <parkingArea id="pa-318577565#5" lane="-318577565#5_0" roadsideCapacity="9" length="5"/>
    <parkingArea id="pa-318699973" lane="-318699973_0" roadsideCapacity="10" length="5"/>
    <parkingArea id="pa-318699977" lane="-318699977_0" roadsideCapacity="11" length="5"/>
    <parkingArea id="pa-318699983#1" lane="-318699983#1_0" roadsideCapacity="2" length="5"/>
    <parkingArea id="pa-318705791" lane="-318705791_0" roadsideCapacity="10" length="5"/>
    <parkingArea id="pa-318705801" lane="-318705801_0" roadsideCapacity="13" length="5"/>
    <parkingArea id="pa-318705802#0" lane="-318705802#0_0" roadsideCapacity="14" length="5"/>
    <parkingArea id="pa-318729196#1" lane="-318729196#1_0" roadsideCapacity="2" length="5"/>
    <parkingArea id="pa-318729196#3" lane="-318729196#3_0" roadsideCapacity="3" length="5"/>
    <parkingArea id="pa-318729197#0" lane="-318729197#0_0" roadsideCapacity="7" length="5"/>
    <parkingArea id="pa-318729197#1" lane="-318729197#1_0" roadsideCapacity="5" length="5"/>
    <parkingArea id="pa-318729197#2" lane="-318729197#2_0" roadsideCapacity="5" length="5"/>
    <parkingArea id="pa-318729197#3" lane="-318729197#3_0" roadsideCapacity="6" length="5"/>
    <parkingArea id="pa-318729206#0" lane="-318729206#0_0" roadsideCapacity="6" length="5"/>
    <parkingArea id="pa-318729206#1" lane="-318729206#1_0" roadsideCapacity="9" length="5"/>
    <parkingArea id="pa-318729208#0" lane="-318729208#0_0" roadsideCapacity="5" length="5"/>
    <parkingArea id="pa-318729208#1" lane="-318729208#1_0" roadsideCapacity="1" length="5"/>
    <parkingArea id="pa-318729208#2" lane="-318729208#2_0" roadsideCapacity="2" length="5"/>
    <parkingArea id="pa-318729210" lane="-318729210_0" roadsideCapacity="10" length="5"/>
    <parkingArea id="pa-318729215" lane="-318729215_0" roadsideCapacity="10" length="5"/>
    <parkingArea id="pa-318729218" lane="-318729218_0" roadsideCapacity="10" length="5"/>
    <parkingArea id="pa-318729227#1" lane="-318729227#1_0" roadsideCapacity="7" length="5"/>
    <parkingArea id="pa-318729227#2" lane="-318729227#2_0" roadsideCapacity="5" length="5"/>
    <parkingArea id="pa-318729227#3" lane="-318729227#3_0" roadsideCapacity="5" length="5"/>
    <parkingArea id="pa-318729235#0" lane="-318729235#0_0" roadsideCapacity="8" length="5"/>
    <parkingArea id="pa-318729235#1" lane="-318729235#1_0" roadsideCapacity="5" length="5"/>
    <parkingArea id="pa-318729235#2" lane="-318729235#2_0" roadsideCapacity="7" length="5"/>
    <parkingArea id="pa-318729235#3" lane="-318729235#3_0" roadsideCapacity="5" length="5"/>
    <parkingArea id="pa-318729235#4" lane="-318729235#4_0" roadsideCapacity="5" length="5"/>
    <parkingArea id="pa-318729235#5" lane="-318729235#5_0" roadsideCapacity="5" length="5"/>
    <parkingArea id="pa-318729235#6" lane="-318729235#6_0" roadsideCapacity="5" length="5"/>
    <parkingArea id="pa-318729236#1" lane="-318729236#1_0" roadsideCapacity="12" length="5"/>
    <parkingArea id="pa-318729236#2" lane="-318729236#2_0" roadsideCapacity="6" length="5"/>
    <parkingArea id="pa-318729236#3" lane="-318729236#3_0" roadsideCapacity="6" length="5"/>
    <parkingArea id="pa-318729238#1" lane="-318729238#1_0" roadsideCapacity="8" length="5"/>
    <parkingArea id="pa-318729238#3" lane="-318729238#3_0" roadsideCapacity="3" length="5"/>
    <parkingArea id="pa-318729238#4" lane="-318729238#4_0" roadsideCapacity="9" length="5"/>
    <parkingArea id="pa-318729239#1" lane="-318729239#1_0" roadsideCapacity="8" length="5"/>
    <parkingArea id="pa-318729240#0" lane="-318729240#0_0" roadsideCapacity="8" length="5"/>
    <parkingArea id="pa-318729240#1" lane="-318729240#1_0" roadsideCapacity="5" length="5"/>
    <parkingArea id="pa-318729240#2" lane="-318729240#2_0" roadsideCapacity="6" length="5"/>
    <parkingArea id="pa-318729243" lane="-318729243_0" roadsideCapacity="1" length="5"/>
    <parkingArea id="pa-318729244#0" lane="-318729244#0_0" roadsideCapacity="17" length="5"/>
    <parkingArea id="pa-318729244#1" lane="-318729244#1_0" roadsideCapacity="9" length="5"/>
    <parkingArea id="pa-318729244#2" lane="-318729244#2_0" roadsideCapacity="5" length="5"/>
    <parkingArea id="pa-318729245" lane="-318729245_0" roadsideCapacity="11" length="5"/>
    <parkingArea id="pa-318729246#1" lane="-318729246#1_0" roadsideCapacity="8" length="5"/>
    <parkingArea id="pa-318729248#1" lane="-318729248#1_0" roadsideCapacity="34" length="5"/>
    <parkingArea id="pa-318729256" lane="-318729256_0" roadsideCapacity="3" length="5"/>
    <parkingArea id="pa-318729259" lane="-318729259_0" roadsideCapacity="28" length="5"/>
    <parkingArea id="pa-318729266#0" lane="-318729266#0_0" roadsideCapacity="16" length="5"/>
    <parkingArea id="pa-318729266#1" lane="-318729266#1_0" roadsideCapacity="17" length="5"/>
    <parkingArea id="pa-318729270" lane="-318729270_0" roadsideCapacity="26" length="5"/>
    <parkingArea id="pa-361753478#0" lane="-361753478#0_0" roadsideCapacity="3" length="5"/>
    <parkingArea id="pa-361753478#1" lane="-361753478#1_0" roadsideCapacity="2" length="5"/>
    <parkingArea id="pa-361753478#2" lane="-361753478#2_0" roadsideCapacity="5" length="5"/>
    <parkingArea id="pa-361753478#3" lane="-361753478#3_0" roadsideCapacity="12" length="5"/>
    <parkingArea id="pa-361753478#4" lane="-361753478#4_0" roadsideCapacity="22" length="5"/>
    <parkingArea id="pa-361753481" lane="-361753481_0" roadsideCapacity="13" length="5"/>
    <parkingArea id="pa-361753482#1" lane="-361753482#1_0" roadsideCapacity="7" length="5"/>
    <parkingArea id="pa-361753482#4" lane="-361753482#4_0" roadsideCapacity="20" length="5"/>
    <parkingArea id="pa-361753482#5" lane="-361753482#5_0" roadsideCapacity="4" length="5"/>
    <parkingArea id="pa-361753485#0" lane="-361753485#0_0" roadsideCapacity="1" length="5"/>
    <parkingArea id="pa-361753485#1" lane="-361753485#1_0" roadsideCapacity="7" length="5"/>
    <parkingArea id="pa-361753485#4" lane="-361753485#4_0" roadsideCapacity="3" length="5"/>
    <parkingArea id="pa-361753485#5" lane="-361753485#5_0" roadsideCapacity="3" length="5"/>
    <parkingArea id="pa-361753485#6" lane="-361753485#6_0" roadsideCapacity="6" length="5"/>
    <parkingArea id="pa-361753487#0" lane="-361753487#0_0" roadsideCapacity="1" length="5"/>
    <parkingArea id="pa-361753487#1" lane="-361753487#1_0" roadsideCapacity="6" length="5"/>
    <parkingArea id="pa-361753487#4" lane="-361753487#4_0" roadsideCapacity="3" length="5"/>
    <parkingArea id="pa-361753487#5" lane="-361753487#5_0" roadsideCapacity="9" length="5"/>
    <parkingArea id="pa-361753490#0" lane="-361753490#0_0" roadsideCapacity="13" length="5"/>
    <parkingArea id="pa-361753490#1" lane="-361753490#1_0" roadsideCapacity="9" length="5"/>
    <parkingArea id="pa-361922207#0" lane="-361922207#0_0" roadsideCapacity="5" length="5"/>
    <parkingArea id="pa-361922207#1" lane="-361922207#1_0" roadsideCapacity="13" length="5"/>
    <parkingArea id="pa-361922207#2" lane="-361922207#2_0" roadsideCapacity="7" length="5"/>
    <parkingArea id="pa-378310163" lane="-378310163_0" roadsideCapacity="12" length="5"/>
    <parkingArea id="pa-378310182" lane="-378310182_0" roadsideCapacity="26" length="5"/>
    <parkingArea id="pa-378310184" lane="-378310184_0" roadsideCapacity="10" length="5"/>
    <parkingArea id="pa-378310186" lane="-378310186_0" roadsideCapacity="31" length="5"/>
    <parkingArea id="pa-378310188#0" lane="-378310188#0_0" roadsideCapacity="20" length="5"/>
    <parkingArea id="pa-378310188#1" lane="-378310188#1_0" roadsideCapacity="25" length="5"/>
    <parkingArea id="pa-378310190" lane="-378310190_0" roadsideCapacity="16" length="5"/>
    <parkingArea id="pa-378310192#1" lane="-378310192#1_0" roadsideCapacity="28" length="5"/>
    <parkingArea id="pa-378310192#2" lane="-378310192#2_0" roadsideCapacity="5" length="5"/>
    <parkingArea id="pa-378310192#3" lane="-378310192#3_0" roadsideCapacity="15" length="5"/>
    <parkingArea id="pa-378310192#4" lane="-378310192#4_0" roadsideCapacity="34" length="5"/>
    <parkingArea id="pa-378310194" lane="-378310194_0" roadsideCapacity="38" length="5"/>
    <parkingArea id="pa-378849580" lane="-378849580_0" roadsideCapacity="2" length="5"/>
    <parkingArea id="pa-378849581#2" lane="-378849581#2_0" roadsideCapacity="8" length="5"/>
    <parkingArea id="pa-378849581#4" lane="-378849581#4_0" roadsideCapacity="10" length="5"/>
    <parkingArea id="pa-378849581#5" lane="-378849581#5_0" roadsideCapacity="3" length="5"/>
    <parkingArea id="pa-378849581#6" lane="-378849581#6_0" roadsideCapacity="21" length="5"/>
    <parkingArea id="pa-378849585" lane="-378849585_0" roadsideCapacity="15" length="5"/>
    <parkingArea id="pa-378849586#0" lane="-378849586#0_0" roadsideCapacity="24" length="5"/>
    <parkingArea id="pa-378849586#1" lane="-378849586#1_0" roadsideCapacity="15" length="5"/>
    <parkingArea id="pa-378849587" lane="-378849587_0" roadsideCapacity="44" length="5"/>
    <parkingArea id="pa-378869312" lane="-378869312_0" roadsideCapacity="13" length="5"/>
    <parkingArea id="pa-378869313#0" lane="-378869313#0_0" roadsideCapacity="7" length="5"/>
    <parkingArea id="pa-378869313#1" lane="-378869313#1_0" roadsideCapacity="3" length="5"/>
    <parkingArea id="pa-378869316" lane="-378869316_0" roadsideCapacity="11" length="5"/>
    <parkingArea id="pa-378869317#0" lane="-378869317#0_0" roadsideCapacity="13" length="5"/>
    <parkingArea id="pa-378869317#1" lane="-378869317#1_0" roadsideCapacity="14" length="5"/>
    <parkingArea id="pa-378869319" lane="-378869319_0" roadsideCapacity="6" length="5"/>
    <parkingArea id="pa-378869320" lane="-378869320_0" roadsideCapacity="13" length="5"/>
    <parkingArea id="pa-378869331#1" lane="-378869331#1_0" roadsideCapacity="5" length="5"/>
    <parkingArea id="pa-378869331#3" lane="-378869331#3_0" roadsideCapacity="2" length="5"/>
    <parkingArea id="pa-378869331#4" lane="-378869331#4_0" roadsideCapacity="7" length="5"/>
    <parkingArea id="pa-378869331#5" lane="-378869331#5_0" roadsideCapacity="10" length="5"/>
    <parkingArea id="pa-378869331#6" lane="-378869331#6_0" roadsideCapacity="12" length="5"/>
    <parkingArea id="pa-378869332#0" lane="-378869332#0_0" roadsideCapacity="6" length="5"/>
    <parkingArea id="pa-378869332#1" lane="-378869332#1_0" roadsideCapacity="8" length="5"/>
    <parkingArea id="pa-378869332#2" lane="-378869332#2_0" roadsideCapacity="7" length="5"/>
    <parkingArea id="pa-378869332#3" lane="-378869332#3_0" roadsideCapacity="11" length="5"/>
    <parkingArea id="pa-378869332#4" lane="-378869332#4_0" roadsideCapacity="4" length="5"/>