<?xml version='1.0' encoding='utf-8'?>
<routes xmlns:xsi="http://www.w3.org/2001/XMLSchema-instance" xsi:noNamespaceSchemaLocation="http://sumo.dlr.de/xsd/routes_file.xsd">
    <person depart="22.65" id="2">
        <walk from="699376432" to="699147654#5" />
    </person>
    <person depart="101.94" id="9">
        <walk from="699536216" to="-1271646480" />
    </person>
    <person depart="113.26" id="10">
        <walk from="699536203#1" to="699304616#2" />
    </person>
    <person depart="135.91" id="12">
        <walk from="953699290#3" to="-926161368" />
    </person>
    <person depart="158.57" id="14">
        <walk from="699635163#4" to="696650131#4" />
    </person>
    <person depart="169.89" id="15">
        <walk from="699536211" to="699308699#1" />
    </person>
    <person depart="203.87" id="18">
        <walk from="699536266" to="696650154#2" />
    </person>
    <person depart="215.20" id="19">
        <walk from="699635190#1" to="684064525#1" />
    </person>
    <person depart="249.18" id="22">
        <walk from="-552085060#1" to="-699536192#1" />
    </person>
    <person depart="294.48" id="26">
        <walk from="-699538714#5" to="940217630" />
    </person>
    <person depart="305.81" id="27">
        <walk from="698164871" to="696650142#1" />
    </person>
    <person depart="317.13" id="28">
        <walk from="-699376434#1" to="699308696" />
    </person>
    <person depart="419.07" id="37">
        <walk from="698430313" to="249660499#2" />
    </person>
    <person depart="453.05" id="40">
        <walk from="681784961" to="-699538710" />
    </person>
    <person depart="532.33" id="47">
        <walk from="-501177576#17" to="1289027425#1" />
    </person>
    <person depart="554.98" id="49">
        <walk from="953915674#0" to="699635187" />
    </person>
    <person depart="566.31" id="50">
        <walk from="-1316950570" to="699308681#1" />
    </person>
    <person depart="588.96" id="52">
        <walk from="-699538714#4" to="697914901#2" />
    </person>
    <person depart="600.29" id="53">
        <walk from="-681784954#0" to="379863853#3" />
    </person>
    <person depart="622.94" id="55">
        <walk from="699635219#1" to="-699538711#2" />
    </person>
    <person depart="634.26" id="56">
        <walk from="545827863" to="-699384218#3" />
    </person>
    <person depart="656.92" id="58">
        <walk from="-699635200#1" to="697333924#0" />
    </person>
    <person depart="668.24" id="59">
        <walk from="696650142#1" to="-699305967#0" />
    </person>
    <person depart="724.87" id="64">
        <walk from="699635224" to="699538711#2" />
    </person>
    <person depart="747.53" id="66">
        <walk from="699635223#2" to="953621471" />
    </person>
    <person depart="758.85" id="67">
        <walk from="-59254860#0" to="501177558#3" />
    </person>
    <person depart="770.18" id="68">
        <walk from="-509710161#1" to="699443716#1" />
    </person>
    <person depart="804.16" id="71">
        <walk from="-699538714#0" to="699635212" />
    </person>
    <person depart="838.14" id="74">
        <walk from="-699443733" to="-699635228#0" />
    </person>
    <person depart="883.44" id="78">
        <walk from="-939744442" to="696339586#2" />
    </person>
    <person depart="906.09" id="80">
        <walk from="-545827855#0" to="696850213#3" />
    </person>
    <person depart="940.07" id="83">
        <walk from="-699536209#0" to="699146804#1" />
    </person>
    <person depart="985.37" id="87">
        <walk from="699536212#0" to="-699443711" />
    </person>
    <person depart="1019.35" id="90">
        <walk from="699308694#5" to="699147646" />
    </person>
    <person depart="1064.66" id="94">
        <walk from="-699443710#3" to="472552792#2" />
    </person>
    <person depart="1098.64" id="97">
        <walk from="469036604#0" to="699635189" />
    </person>
    <person depart="1132.61" id="100">
        <walk from="953883952#3" to="926057875#0" />
    </person>
    <person depart="1177.92" id="104">
        <walk from="1287595055#2" to="954599934#0" />
    </person>
    <person depart="1234.55" id="109">
        <walk from="-699305970#3" to="-699635194#1" />
    </person>
    <person depart="1245.88" id="110">
        <walk from="953883952#2" to="684162599#1" />
    </person>
    <person depart="1268.53" id="112">
        <walk from="-500826169#1" to="684968890" />
    </person>
    <person depart="1279.85" id="113">
        <walk from="552085057#14" to="699635171#6" />
    </person>
    <person depart="1291.18" id="114">
        <walk from="-699305975#1" to="953699296#3" />
    </person>
    <person depart="1302.51" id="115">
        <walk from="-552085060#3" to="-699391004#1" />
    </person>
    <person depart="1313.83" id="116">
        <walk from="696548846#0" to="699147652" />
    </person>
    <person depart="1325.16" id="117">
        <walk from="-699536199" to="-699146804#2" />
    </person>
    <person depart="1347.81" id="119">
        <walk from="696548845#3" to="696650154#5" />
    </person>
    <person depart="1359.14" id="120">
        <walk from="378886804#3" to="684968888#1" />
    </person>
    <person depart="1370.46" id="121">
        <walk from="596247088#0" to="940217623#1" />
    </person>
    <person depart="1381.79" id="122">
        <walk from="-699443739#1" to="699306189#1" />
    </person>
    <person depart="1393.12" id="123">
        <walk from="-699536211" to="249660499#3" />
    </person>
    <person depart="1404.44" id="124">
        <walk from="699146809#0" to="-699635202#2" />
    </person>
    <person depart="1438.42" id="127">
        <walk from="998466230" to="998168640" />
    </person>
    <person depart="1461.07" id="129">
        <walk from="-699538714#0" to="940217621#2" />
    </person>
    <person depart="1472.40" id="130">
        <walk from="699635228#2" to="699635225#1" />
    </person>
    <person depart="1483.73" id="131">
        <walk from="1259366875#1" to="-699305976#0" />
    </person>
    <person depart="1495.05" id="132">
        <walk from="699538714#10" to="699305970#1" />
    </person>
    <person depart="1506.38" id="133">
        <walk from="696650147#0" to="958717351#0" />
    </person>
    <person depart="1517.70" id="134">
        <walk from="698167556#1" to="-1287595055#2" />
    </person>
    <person depart="1551.68" id="137">
        <walk from="-699214138#0" to="-699037767" />
    </person>
    <person depart="1574.33" id="139">
        <walk from="-699635139#1" to="696650131#8" />
    </person>
    <person depart="1585.66" id="140">
        <walk from="699308677#3" to="-699443738" />
    </person>
    <person depart="1596.99" id="141">
        <walk from="696850217#1" to="-699538713#0" />
    </person>
    <person depart="1619.64" id="143">
        <walk from="699635162#1" to="-596247088#12" />
    </person>
    <person depart="1653.62" id="146">
        <walk from="696850222#0" to="-699536270" />
    </person>
    <person depart="1687.60" id="149">
        <walk from="-552085057#13" to="699637051#2" />
    </person>
    <person depart="1710.25" id="151">
        <walk from="699538714#3" to="684968882" />
    </person>
    <person depart="1721.57" id="152">
        <walk from="-699304616#0" to="-699147654#3" />
    </person>
    <person depart="1823.51" id="161">
        <walk from="699536220" to="699635230#0" />
    </person>
    <person depart="1857.49" id="164">
        <walk from="699536195#1" to="699635193#1" />
    </person>
    <person depart="1868.81" id="165">
        <walk from="699536220" to="-699538714#4" />
    </person>
    <person depart="1891.47" id="167">
        <walk from="699635211#2" to="699635184#2" />
    </person>
    <person depart="1914.12" id="169">
        <walk from="500826135#2" to="-699635213#2" />
    </person>
    <person depart="1925.45" id="170">
        <walk from="699536182#3" to="-699536182#4" />
    </person>
    <person depart="1959.42" id="173">
        <walk from="953883950#4" to="-699635163#3" />
    </person>
    <person depart="2004.73" id="177">
        <walk from="953883952#8" to="-699384218#2" />
    </person>
    <person depart="2016.05" id="178">
        <walk from="953699297#1" to="-699538714#1" />
    </person>
    <person depart="2038.71" id="180">
        <walk from="699308694#3" to="-699637060#1" />
    </person>
    <person depart="2106.66" id="186">
        <walk from="699376447#0" to="699146806#0" />
    </person>
    <person depart="2140.64" id="189">
        <walk from="-699637060#1" to="699635165" />
    </person>
    <person depart="2151.97" id="190">
        <walk from="699308679#2" to="-699635202#3" />
    </person>
    <person depart="2163.29" id="191">
        <walk from="-699635223#1" to="306371084#1" />
    </person>
    <person depart="2242.58" id="198">
        <walk from="379863827#3" to="684162600#0" />
    </person>
    <person depart="2299.21" id="203">
        <walk from="-585966044" to="585966044" />
    </person>
    <person depart="2310.53" id="204">
        <walk from="696850215#0" to="-926057876" />
    </person>
    <person depart="2355.84" id="208">
        <walk from="-699536224#1" to="500828183#0" />
    </person>
    <person depart="2367.17" id="209">
        <walk from="699635170#1" to="-545827860#2" />
    </person>
    <person depart="2378.49" id="210">
        <walk from="378875703#1" to="696850212#2" />
    </person>
    <person depart="2389.82" id="211">
        <walk from="-699443718#3" to="699304611" />
    </person>
    <person depart="2401.14" id="212">
        <walk from="501177583#3" to="-699536223#1" />
    </person>
    <person depart="2423.80" id="214">
        <walk from="699391000#1" to="699443737#0" />
    </person>
    <person depart="2446.45" id="216">
        <walk from="-699376447#1" to="953699290#6" />
    </person>
    <person depart="2457.77" id="217">
        <walk from="59254860#14" to="-500826136#11" />
    </person>
    <person depart="2480.43" id="219">
        <walk from="500826124#5" to="699536193" />
    </person>
    <person depart="2491.75" id="220">
        <walk from="699146802#0" to="958717352#1" />
    </person>
    <person depart="2503.08" id="221">
        <walk from="696548846#10" to="953699282#0" />
    </person>
    <person depart="2525.73" id="223">
        <walk from="699308679#0" to="552085057#9" />
    </person>
    <person depart="2559.71" id="226">
        <walk from="500828182#8" to="-699536261#1" />
    </person>
    <person depart="2593.69" id="229">
        <walk from="696650159#0" to="-699635151" />
    </person>
    <person depart="2605.01" id="230">
        <walk from="-552085057#9" to="-699635175#1" />
    </person>
    <person depart="2638.99" id="233">
        <walk from="-699536189" to="699304606#0" />
    </person>
    <person depart="2650.32" id="234">
        <walk from="699305975#0" to="-501177576#2" />
    </person>
    <person depart="2684.30" id="237">
        <walk from="378919993#1" to="82489736#4" />
    </person>
    <person depart="2695.62" id="238">
        <walk from="684968890" to="699304609#0" />
    </person>
    <person depart="2740.93" id="242">
        <walk from="699635175#0" to="953699286#0" />
    </person>
    <person depart="2752.25" id="243">
        <walk from="378886804#2" to="699384224#1" />
    </person>
    <person depart="2774.91" id="245">
        <walk from="-699536172#1" to="-699536170#2" />
    </person>
    <person depart="2797.56" id="247">
        <walk from="-926161365#2" to="699148301#3" />
    </person>
    <person depart="2820.21" id="249">
        <walk from="500826165#4" to="-699147654#4" />
    </person>
    <person depart="2831.54" id="250">
        <walk from="696650156#14" to="-378849581#2" />
    </person>
    <person depart="2842.86" id="251">
        <walk from="160247886#7" to="681796255" />
    </person>
    <person depart="2854.19" id="252">
        <walk from="-378849581#4" to="698159129#0" />
    </person>
    <person depart="2865.52" id="253">
        <walk from="-699214139" to="500826136#11" />
    </person>
    <person depart="2876.84" id="254">
        <walk from="-500826136#11" to="1287595055#2" />
    </person>
    <person depart="2899.49" id="256">
        <walk from="699443716#3" to="1287595055#2" />
    </person>
    <person depart="2910.82" id="257">
        <walk from="699391002#3" to="699538711#2" />
    </person>
    <person depart="2967.45" id="262">
        <walk from="698167552#0" to="699391005#1" />
    </person>
    <person depart="3001.43" id="265">
        <walk from="-699147653#2" to="699146805#0" />
    </person>
    <person depart="3035.41" id="268">
        <walk from="-699376427" to="696650139#0" />
    </person>
    <person depart="3046.73" id="269">
        <walk from="699384224#3" to="-699037766#0" />
    </person>
    <person depart="3080.71" id="272">
        <walk from="-699635228#1" to="699147654#7" />
    </person>
    <person depart="3092.04" id="273">
        <walk from="953699290#7" to="249660500#2" />
    </person>
    <person depart="3114.69" id="275">
        <walk from="699214151#2" to="696650160#0" />
    </person>
    <person depart="3137.34" id="277">
        <walk from="699635170#3" to="696548849#2" />
    </person>
    <person depart="3148.67" id="278">
        <walk from="-699146806#0" to="954599932#4" />
    </person>
    <person depart="3216.63" id="284">
        <walk from="696850219#2" to="699536264" />
    </person>
    <person depart="3239.28" id="286">
        <walk from="699376426#2" to="953883948#3" />
    </person>
    <person depart="3250.60" id="287">
        <walk from="-699538717#4" to="699536213#1" />
    </person>
    <person depart="3284.58" id="290">
        <walk from="-699538715" to="699635171#2" />
    </person>
    <person depart="3295.91" id="291">
        <walk from="699536271" to="-59254860#12" />
    </person>
    <person depart="3307.24" id="292">
        <walk from="699635230#1" to="-699536223#1" />
    </person>
    <person depart="3329.89" id="294">
        <walk from="1287595055#2" to="-378875703#2" />
    </person>
    <person depart="3341.21" id="295">
        <walk from="699635170#6" to="-699384229" />
    </person>
    <person depart="3375.19" id="298">
        <walk from="699304621#1" to="-699635156" />
    </person>
    <person depart="3397.84" id="300">
        <walk from="-59254860#0" to="699308679#3" />
    </person>
    <person depart="3409.17" id="301">
        <walk from="501177576#10" to="699443710#3" />
    </person>
    <person depart="3420.50" id="302">
        <walk from="699214151#2" to="698164867#1" />
    </person>
    <person depart="3454.48" id="305">
        <walk from="699214153#0" to="-699635217#0" />
    </person>
    <person depart="3465.80" id="306">
        <walk from="684318183" to="500828182#3" />
    </person>
    <person depart="3499.78" id="309">
        <walk from="699305969" to="-699538718#2" />
    </person>
    <person depart="3522.43" id="311">
        <walk from="-699443716#1" to="-699146804#1" />
    </person>
    <person depart="3556.41" id="314">
        <walk from="500828206" to="699308687" />
    </person>
</routes>