<?xml version="1.0" encoding="UTF-8"?>

<!-- generated on 2025-03-27 16:47:48.484160 by randomTrips.py v1_20_0+0000-96efa4d36d6
<configuration>
    <net-file value="osm.net.xml.gz"/>
    <output-trip-file value="ped.add.xml"/>
    <pedestrians value="True"/>
    <remove-loops value="True"/>
    <validate value="True"/>
    <insertion-density value="2.0"/>
</configuration>
-->

<!-- generated on 2025-03-27 16:47:48 by Eclipse SUMO duarouter Version 1.20.0
<configuration xmlns:xsi="http://www.w3.org/2001/XMLSchema-instance" xsi:noNamespaceSchemaLocation="http://sumo.dlr.de/xsd/duarouterConfiguration.xsd">

    <input>
        <net-file value="osm.net.xml.gz"/>
        <route-files value="ped.add.xml"/>
    </input>

    <output>
        <output-file value="ped.add.xml.tmp"/>
        <alternatives-output value="NUL"/>
        <write-trips value="true"/>
    </output>

    <processing>
        <remove-loops value="true"/>
    </processing>

    <time>
        <begin value="0.0"/>
        <end value="3600.0"/>
    </time>

    <report>
        <no-warnings value="true"/>
        <ignore-errors value="true"/>
        <no-step-log value="true"/>
    </report>

</configuration>
-->

<routes xmlns:xsi="http://www.w3.org/2001/XMLSchema-instance" xsi:noNamespaceSchemaLocation="http://sumo.dlr.de/xsd/routes_file.xsd">
    <person id="2" depart="22.65">
        <personTrip from="699376432" to="699147654#5" walkFactor="0.75"/>
    </person>
    <person id="9" depart="101.94">
        <personTrip from="699536216" to="-1271646480" walkFactor="0.75"/>
    </person>
    <person id="10" depart="113.26">
        <personTrip from="699536203#1" to="699304616#2" walkFactor="0.75"/>
    </person>
    <person id="12" depart="135.91">
        <personTrip from="953699290#3" to="-926161368" walkFactor="0.75"/>
    </person>
    <person id="14" depart="158.57">
        <personTrip from="699635163#4" to="696650131#4" walkFactor="0.75"/>
    </person>
    <person id="15" depart="169.89">
        <personTrip from="699536211" to="699308699#1" walkFactor="0.75"/>
    </person>
    <person id="18" depart="203.87">
        <personTrip from="699536266" to="696650154#2" walkFactor="0.75"/>
    </person>
    <person id="19" depart="215.20">
        <personTrip from="699635190#1" to="684064525#1" walkFactor="0.75"/>
    </person>
    <person id="22" depart="249.18">
        <personTrip from="-552085060#1" to="-699536192#1" walkFactor="0.75"/>
    </person>
    <person id="26" depart="294.48">
        <personTrip from="-699538714#5" to="940217630" walkFactor="0.75"/>
    </person>
    <person id="27" depart="305.81">
        <personTrip from="698164871" to="696650142#1" walkFactor="0.75"/>
    </person>
    <person id="28" depart="317.13">
        <personTrip from="-699376434#1" to="699308696" walkFactor="0.75"/>
    </person>
    <person id="37" depart="419.07">
        <personTrip from="698430313" to="249660499#2" walkFactor="0.75"/>
    </person>
    <person id="40" depart="453.05">
        <personTrip from="681784961" to="-699538710" walkFactor="0.75"/>
    </person>
    <person id="47" depart="532.33">
        <personTrip from="-501177576#17" to="1289027425#1" walkFactor="0.75"/>
    </person>
    <person id="49" depart="554.98">
        <personTrip from="953915674#0" to="699635187" walkFactor="0.75"/>
    </person>
    <person id="50" depart="566.31">
        <personTrip from="-1316950570" to="699308681#1" walkFactor="0.75"/>
    </person>
    <person id="52" depart="588.96">
        <personTrip from="-699538714#4" to="697914901#2" walkFactor="0.75"/>
    </person>
    <person id="53" depart="600.29">
        <personTrip from="-681784954#0" to="379863853#3" walkFactor="0.75"/>
    </person>
    <person id="55" depart="622.94">
        <personTrip from="699635219#1" to="-699538711#2" walkFactor="0.75"/>
    </person>
    <person id="56" depart="634.26">
        <personTrip from="545827863" to="-699384218#3" walkFactor="0.75"/>
    </person>
    <person id="58" depart="656.92">
        <personTrip from="-699635200#1" to="697333924#0" walkFactor="0.75"/>
    </person>
    <person id="59" depart="668.24">
        <personTrip from="696650142#1" to="-699305967#0" walkFactor="0.75"/>
    </person>
    <person id="64" depart="724.87">
        <personTrip from="699635224" to="699538711#2" walkFactor="0.75"/>
    </person>
    <person id="66" depart="747.53">
        <personTrip from="699635223#2" to="953621471" walkFactor="0.75"/>
    </person>
    <person id="67" depart="758.85">
        <personTrip from="-59254860#0" to="501177558#3" walkFactor="0.75"/>
    </person>
    <person id="68" depart="770.18">
        <personTrip from="-509710161#1" to="699443716#1" walkFactor="0.75"/>
    </person>
    <person id="71" depart="804.16">
        <personTrip from="-699538714#0" to="699635212" walkFactor="0.75"/>
    </person>
    <person id="74" depart="838.14">
        <personTrip from="-699443733" to="-699635228#0" walkFactor="0.75"/>
    </person>
    <person id="78" depart="883.44">
        <personTrip from="-939744442" to="696339586#2" walkFactor="0.75"/>
    </person>
    <person id="80" depart="906.09">
        <personTrip from="-545827855#0" to="696850213#3" walkFactor="0.75"/>
    </person>
    <person id="83" depart="940.07">
        <personTrip from="-699536209#0" to="699146804#1" walkFactor="0.75"/>
    </person>
    <person id="87" depart="985.37">
        <personTrip from="699536212#0" to="-699443711" walkFactor="0.75"/>
    </person>
    <person id="90" depart="1019.35">
        <personTrip from="699308694#5" to="699147646" walkFactor="0.75"/>
    </person>
    <person id="94" depart="1064.66">
        <personTrip from="-699443710#3" to="472552792#2" walkFactor="0.75"/>
    </person>
    <person id="97" depart="1098.64">
        <personTrip from="469036604#0" to="699635189" walkFactor="0.75"/>
    </person>
    <person id="100" depart="1132.61">
        <personTrip from="953883952#3" to="926057875#0" walkFactor="0.75"/>
    </person>
    <person id="104" depart="1177.92">
        <personTrip from="1287595055#2" to="954599934#0" walkFactor="0.75"/>
    </person>
    <person id="109" depart="1234.55">
        <personTrip from="-699305970#3" to="-699635194#1" walkFactor="0.75"/>
    </person>
    <person id="110" depart="1245.88">
        <personTrip from="953883952#2" to="684162599#1" walkFactor="0.75"/>
    </person>
    <person id="112" depart="1268.53">
        <personTrip from="-500826169#1" to="684968890" walkFactor="0.75"/>
    </person>
    <person id="113" depart="1279.85">
        <personTrip from="552085057#14" to="699635171#6" walkFactor="0.75"/>
    </person>
    <person id="114" depart="1291.18">
        <personTrip from="-699305975#1" to="953699296#3" walkFactor="0.75"/>
    </person>
    <person id="115" depart="1302.51">
        <personTrip from="-552085060#3" to="-699391004#1" walkFactor="0.75"/>
    </person>
    <person id="116" depart="1313.83">
        <personTrip from="696548846#0" to="699147652" walkFactor="0.75"/>
    </person>
    <person id="117" depart="1325.16">
        <personTrip from="-699536199" to="-699146804#2" walkFactor="0.75"/>
    </person>
    <person id="119" depart="1347.81">
        <personTrip from="696548845#3" to="696650154#5" walkFactor="0.75"/>
    </person>
    <person id="120" depart="1359.14">
        <personTrip from="378886804#3" to="684968888#1" walkFactor="0.75"/>
    </person>
    <person id="121" depart="1370.46">
        <personTrip from="596247088#0" to="940217623#1" walkFactor="0.75"/>
    </person>
    <person id="122" depart="1381.79">
        <personTrip from="-699443739#1" to="699306189#1" walkFactor="0.75"/>
    </person>
    <person id="123" depart="1393.12">
        <personTrip from="-699536211" to="249660499#3" walkFactor="0.75"/>
    </person>
    <person id="124" depart="1404.44">
        <personTrip from="699146809#0" to="-699635202#2" walkFactor="0.75"/>
    </person>
    <person id="127" depart="1438.42">
        <personTrip from="998466230" to="998168640" walkFactor="0.75"/>
    </person>
    <person id="129" depart="1461.07">
        <personTrip from="-699538714#0" to="940217621#2" walkFactor="0.75"/>
    </person>
    <person id="130" depart="1472.40">
        <personTrip from="699635228#2" to="699635225#1" walkFactor="0.75"/>
    </person>
    <person id="131" depart="1483.73">
        <personTrip from="1259366875#1" to="-699305976#0" walkFactor="0.75"/>
    </person>
    <person id="132" depart="1495.05">
        <personTrip from="699538714#10" to="699305970#1" walkFactor="0.75"/>
    </person>
    <person id="133" depart="1506.38">
        <personTrip from="696650147#0" to="958717351#0" walkFactor="0.75"/>
    </person>
    <person id="134" depart="1517.70">
        <personTrip from="698167556#1" to="-1287595055#2" walkFactor="0.75"/>
    </person>
    <person id="137" depart="1551.68">
        <personTrip from="-699214138#0" to="-699037767" walkFactor="0.75"/>
    </person>
    <person id="139" depart="1574.33">
        <personTrip from="-699635139#1" to="696650131#8" walkFactor="0.75"/>
    </person>
    <person id="140" depart="1585.66">
        <personTrip from="699308677#3" to="-699443738" walkFactor="0.75"/>
    </person>
    <person id="141" depart="1596.99">
        <personTrip from="696850217#1" to="-699538713#0" walkFactor="0.75"/>
    </person>
    <person id="143" depart="1619.64">
        <personTrip from="699635162#1" to="-596247088#12" walkFactor="0.75"/>
    </person>
    <person id="146" depart="1653.62">
        <personTrip from="696850222#0" to="-699536270" walkFactor="0.75"/>
    </person>
    <person id="149" depart="1687.60">
        <personTrip from="-552085057#13" to="699637051#2" walkFactor="0.75"/>
    </person>
    <person id="151" depart="1710.25">
        <personTrip from="699538714#3" to="684968882" walkFactor="0.75"/>
    </person>
    <person id="152" depart="1721.57">
        <personTrip from="-699304616#0" to="-699147654#3" walkFactor="0.75"/>
    </person>
    <person id="161" depart="1823.51">
        <personTrip from="699536220" to="699635230#0" walkFactor="0.75"/>
    </person>
    <person id="164" depart="1857.49">
        <personTrip from="699536195#1" to="699635193#1" walkFactor="0.75"/>
    </person>
    <person id="165" depart="1868.81">
        <personTrip from="699536220" to="-699538714#4" walkFactor="0.75"/>
    </person>
    <person id="167" depart="1891.47">
        <personTrip from="699635211#2" to="699635184#2" walkFactor="0.75"/>
    </person>
    <person id="169" depart="1914.12">
        <personTrip from="500826135#2" to="-699635213#2" walkFactor="0.75"/>
    </person>
    <person id="170" depart="1925.45">
        <personTrip from="699536182#3" to="-699536182#4" walkFactor="0.75"/>
    </person>
    <person id="173" depart="1959.42">
        <personTrip from="953883950#4" to="-699635163#3" walkFactor="0.75"/>
    </person>
    <person id="177" depart="2004.73">
        <personTrip from="953883952#8" to="-699384218#2" walkFactor="0.75"/>
    </person>
    <person id="178" depart="2016.05">
        <personTrip from="953699297#1" to="-699538714#1" walkFactor="0.75"/>
    </person>
    <person id="180" depart="2038.71">
        <personTrip from="699308694#3" to="-699637060#1" walkFactor="0.75"/>
    </person>
    <person id="186" depart="2106.66">
        <personTrip from="699376447#0" to="699146806#0" walkFactor="0.75"/>
    </person>
    <person id="189" depart="2140.64">
        <personTrip from="-699637060#1" to="699635165" walkFactor="0.75"/>
    </person>
    <person id="190" depart="2151.97">
        <personTrip from="699308679#2" to="-699635202#3" walkFactor="0.75"/>
    </person>
    <person id="191" depart="2163.29">
        <personTrip from="-699635223#1" to="306371084#1" walkFactor="0.75"/>
    </person>
    <person id="198" depart="2242.58">
        <personTrip from="379863827#3" to="684162600#0" walkFactor="0.75"/>
    </person>
    <person id="203" depart="2299.21">
        <personTrip from="-585966044" to="585966044" walkFactor="0.75"/>
    </person>
    <person id="204" depart="2310.53">
        <personTrip from="696850215#0" to="-926057876" walkFactor="0.75"/>
    </person>
    <person id="208" depart="2355.84">
        <personTrip from="-699536224#1" to="500828183#0" walkFactor="0.75"/>
    </person>
    <person id="209" depart="2367.17">
        <personTrip from="699635170#1" to="-545827860#2" walkFactor="0.75"/>
    </person>
    <person id="210" depart="2378.49">
        <personTrip from="378875703#1" to="696850212#2" walkFactor="0.75"/>
    </person>
    <person id="211" depart="2389.82">
        <personTrip from="-699443718#3" to="699304611" walkFactor="0.75"/>
    </person>
    <person id="212" depart="2401.14">
        <personTrip from="501177583#3" to="-699536223#1" walkFactor="0.75"/>
    </person>
    <person id="214" depart="2423.80">
        <personTrip from="699391000#1" to="699443737#0" walkFactor="0.75"/>
    </person>
    <person id="216" depart="2446.45">
        <personTrip from="-699376447#1" to="953699290#6" walkFactor="0.75"/>
    </person>
    <person id="217" depart="2457.77">
        <personTrip from="59254860#14" to="-500826136#11" walkFactor="0.75"/>
    </person>
    <person id="219" depart="2480.43">
        <personTrip from="500826124#5" to="699536193" walkFactor="0.75"/>
    </person>
    <person id="220" depart="2491.75">
        <personTrip from="699146802#0" to="958717352#1" walkFactor="0.75"/>
    </person>
    <person id="221" depart="2503.08">
        <personTrip from="696548846#10" to="953699282#0" walkFactor="0.75"/>
    </person>
    <person id="223" depart="2525.73">
        <personTrip from="699308679#0" to="552085057#9" walkFactor="0.75"/>
    </person>
    <person id="226" depart="2559.71">
        <personTrip from="500828182#8" to="-699536261#1" walkFactor="0.75"/>
    </person>
    <person id="229" depart="2593.69">
        <personTrip from="696650159#0" to="-699635151" walkFactor="0.75"/>
    </person>
    <person id="230" depart="2605.01">
        <personTrip from="-552085057#9" to="-699635175#1" walkFactor="0.75"/>
    </person>
    <person id="233" depart="2638.99">
        <personTrip from="-699536189" to="699304606#0" walkFactor="0.75"/>
    </person>
    <person id="234" depart="2650.32">
        <personTrip from="699305975#0" to="-501177576#2" walkFactor="0.75"/>
    </person>
    <person id="237" depart="2684.30">
        <personTrip from="378919993#1" to="82489736#4" walkFactor="0.75"/>
    </person>
    <person id="238" depart="2695.62">
        <personTrip from="684968890" to="699304609#0" walkFactor="0.75"/>
    </person>
    <person id="242" depart="2740.93">
        <personTrip from="699635175#0" to="953699286#0" walkFactor="0.75"/>
    </person>
    <person id="243" depart="2752.25">
        <personTrip from="378886804#2" to="699384224#1" walkFactor="0.75"/>
    </person>
    <person id="245" depart="2774.91">
        <personTrip from="-699536172#1" to="-699536170#2" walkFactor="0.75"/>
    </person>
    <person id="247" depart="2797.56">
        <personTrip from="-926161365#2" to="699148301#3" walkFactor="0.75"/>
    </person>
    <person id="249" depart="2820.21">
        <personTrip from="500826165#4" to="-699147654#4" walkFactor="0.75"/>
    </person>
    <person id="250" depart="2831.54">
        <personTrip from="696650156#14" to="-378849581#2" walkFactor="0.75"/>
    </person>
    <person id="251" depart="2842.86">
        <personTrip from="160247886#7" to="681796255" walkFactor="0.75"/>
    </person>
    <person id="252" depart="2854.19">
        <personTrip from="-378849581#4" to="698159129#0" walkFactor="0.75"/>
    </person>
    <person id="253" depart="2865.52">
        <personTrip from="-699214139" to="500826136#11" walkFactor="0.75"/>
    </person>
    <person id="254" depart="2876.84">
        <personTrip from="-500826136#11" to="1287595055#2" walkFactor="0.75"/>
    </person>
    <person id="256" depart="2899.49">
        <personTrip from="699443716#3" to="1287595055#2" walkFactor="0.75"/>
    </person>
    <person id="257" depart="2910.82">
        <personTrip from="699391002#3" to="699538711#2" walkFactor="0.75"/>
    </person>
    <person id="262" depart="2967.45">
        <personTrip from="698167552#0" to="699391005#1" walkFactor="0.75"/>
    </person>
    <person id="265" depart="3001.43">
        <personTrip from="-699147653#2" to="699146805#0" walkFactor="0.75"/>
    </person>
    <person id="268" depart="3035.41">
        <personTrip from="-699376427" to="696650139#0" walkFactor="0.75"/>
    </person>
    <person id="269" depart="3046.73">
        <personTrip from="699384224#3" to="-699037766#0" walkFactor="0.75"/>
    </person>
    <person id="272" depart="3080.71">
        <personTrip from="-699635228#1" to="699147654#7" walkFactor="0.75"/>
    </person>
    <person id="273" depart="3092.04">
        <personTrip from="953699290#7" to="249660500#2" walkFactor="0.75"/>
    </person>
    <person id="275" depart="3114.69">
        <personTrip from="699214151#2" to="696650160#0" walkFactor="0.75"/>
    </person>
    <person id="277" depart="3137.34">
        <personTrip from="699635170#3" to="696548849#2" walkFactor="0.75"/>
    </person>
    <person id="278" depart="3148.67">
        <personTrip from="-699146806#0" to="954599932#4" walkFactor="0.75"/>
    </person>
    <person id="284" depart="3216.63">
        <personTrip from="696850219#2" to="699536264" walkFactor="0.75"/>
    </person>
    <person id="286" depart="3239.28">
        <personTrip from="699376426#2" to="953883948#3" walkFactor="0.75"/>
    </person>
    <person id="287" depart="3250.60">
        <personTrip from="-699538717#4" to="699536213#1" walkFactor="0.75"/>
    </person>
    <person id="290" depart="3284.58">
        <personTrip from="-699538715" to="699635171#2" walkFactor="0.75"/>
    </person>
    <person id="291" depart="3295.91">
        <personTrip from="699536271" to="-59254860#12" walkFactor="0.75"/>
    </person>
    <person id="292" depart="3307.24">
        <personTrip from="699635230#1" to="-699536223#1" walkFactor="0.75"/>
    </person>
    <person id="294" depart="3329.89">
        <personTrip from="1287595055#2" to="-378875703#2" walkFactor="0.75"/>
    </person>
    <person id="295" depart="3341.21">
        <personTrip from="699635170#6" to="-699384229" walkFactor="0.75"/>
    </person>
    <person id="298" depart="3375.19">
        <personTrip from="699304621#1" to="-699635156" walkFactor="0.75"/>
    </person>
    <person id="300" depart="3397.84">
        <personTrip from="-59254860#0" to="699308679#3" walkFactor="0.75"/>
    </person>
    <person id="301" depart="3409.17">
        <personTrip from="501177576#10" to="699443710#3" walkFactor="0.75"/>
    </person>
    <person id="302" depart="3420.50">
        <personTrip from="699214151#2" to="698164867#1" walkFactor="0.75"/>
    </person>
    <person id="305" depart="3454.48">
        <personTrip from="699214153#0" to="-699635217#0" walkFactor="0.75"/>
    </person>
    <person id="306" depart="3465.80">
        <personTrip from="684318183" to="500828182#3" walkFactor="0.75"/>
    </person>
    <person id="309" depart="3499.78">
        <personTrip from="699305969" to="-699538718#2" walkFactor="0.75"/>
    </person>
    <person id="311" depart="3522.43">
        <personTrip from="-699443716#1" to="-699146804#1" walkFactor="0.75"/>
    </person>
    <person id="314" depart="3556.41">
        <personTrip from="500828206" to="699308687" walkFactor="0.75"/>
    </person>
</routes>
