<?xml version="1.0" encoding="UTF-8"?>

<!-- generated on 2025-03-27 16:47:47.569051 by randomTrips.py v1_20_0+0000-96efa4d36d6
<configuration>
    <net-file value="osm.net.xml.gz"/>
    <output-trip-file value="ped.add.xml"/>
    <pedestrians value="True"/>
    <remove-loops value="True"/>
    <validate value="True"/>
    <insertion-density value="2.0"/>
</configuration>
-->

<!-- generated on 2025-03-27 16:47:47 by Eclipse SUMO duarouter Version 1.20.0
<configuration xmlns:xsi="http://www.w3.org/2001/XMLSchema-instance" xsi:noNamespaceSchemaLocation="http://sumo.dlr.de/xsd/duarouterConfiguration.xsd">

    <input>
        <net-file value="osm.net.xml.gz"/>
        <route-files value="ped.add.xml"/>
    </input>

    <output>
        <output-file value="routes.rou.xml"/>
        <alternatives-output value="NUL"/>
    </output>

    <processing>
        <remove-loops value="true"/>
    </processing>

    <time>
        <begin value="0.0"/>
        <end value="3600.0"/>
    </time>

    <report>
        <no-warnings value="true"/>
        <ignore-errors value="true"/>
        <no-step-log value="true"/>
    </report>

</configuration>
-->

<routes xmlns:xsi="http://www.w3.org/2001/XMLSchema-instance" xsi:noNamespaceSchemaLocation="http://sumo.dlr.de/xsd/routes_file.xsd">
    <person id="2" depart="22.65">
        <walk edges="699376432 -699376434#0 -500826165#3 -500826165#2 500826165#1 953915676#0 953615088#1 953615088#0 1259366881#1 1259366881#0 1259366879#2 1259366879#3 1259366879#4 -59254860#6 -59254860#5 -59254860#4 -59254860#3 -59254860#2 -59254860#1 -59254860#0 -509710161#5 -509710161#4 -509710161#3 -509710161#2 509710161#1 696850222#0 696548846#0 -699147655#1 -699147655#2 -699147655#3 699147654#5"/>
    </person>
    <person id="9" depart="101.94">
        <walk edges="699536216 -596247088#6 -596247088#7 596247088#8 -596247088#9 -596247088#11 -596247088#12 699536204#0 378886804#3 500828181#1 500828181#2 500828181#3 699308685#0 699308685#1 699308685#2 699308700#0 699308700#1 -699637060#1 953883950#0 953699296#7 953699296#6 953699297#0 953699297#1 1259366880 1259366879#4 59254860#9 59254860#10 940217618#1 940217619#1 940217619#2 940217620#1 940217621#1 940217623#0 940217623#1 1271646484#1 1271646485 -500826136#1 699443748#0 -1271646480"/>
    </person>
    <person id="10" depart="113.26">
        <walk edges="699536203#1 -699536183#5 699536204#1 378886804#3 500828181#1 699308699#0 699308699#1 699308702#1 953883950#2 940217636#1 940217636#0 160247889#0 160247889#1 160247889#2 1259366868 940217611#1 -699304621#1 -699304616#0 -699304616#1 699304616#2"/>
    </person>
    <person id="12" depart="135.91">
        <walk edges="953699290#3 953699290#4 953699290#5 953883948#3 -699635150#1 -926161369 -926161368"/>
    </person>
    <person id="14" depart="158.57">
        <walk edges="699635163#4 -699635163#3 -699635163#2 -699635163#1 -699635163#0 -699635153 -699635155#0 -699635171#5 -699635171#6 1085493627 500828181#9 699637058#0 699637058#1 699637051#0 699308678#2 699308678#1 699308678#0 699308682#1 699308682#0 699308679#2 699308679#1 699308679#0 954599927#6 954599927#7 954599927#8 954599929#2 954599932#0 954599930#3 954599930#2 954599930#1 954599930#0 696650141#0 696650141#3 696650131#6 696650131#5 696650131#4"/>
    </person>
    <person id="15" depart="169.89">
        <walk edges="699536211 -596247088#12 699536204#0 378886804#3 500828181#1 699308699#0 699308699#1"/>
    </person>
    <person id="18" depart="203.87">
        <walk edges="699536266 -501177576#15 -501177576#16 -501177576#17 -501177576#18 -501177576#19 -501177576#21 501177576#5 -501177576#4 -501177576#2 -501177576#1 -501177576#0 -509710161#2 -509710161#1 -509710155#1 -514652461 696650158#2 696650154#2"/>
    </person>
    <person id="19" depart="215.20">
        <walk edges="699635190#1 -699635190#0 -699635178#1 -699635178#0 -699635184#3 -699635184#2 -699635184#1 953915675#1 940217622#1 940217622#0 940217620#1 -500826124#1 -500826124#2 -500826124#3 -500826124#4 500826124#5 -500826124#6 -699391700#0 -699391700#1 -699391700#2 -699391700#3 940217631 379863834#2 379036554#1 379036554#0 1259366871 1259366873 1259366876#0 1259366876#1 697914904#0 697914904#2 697914903 684064525#0 684064525#1"/>
    </person>
    <person id="22" depart="249.18">
        <walk edges="-552085060#1 -552085057#5 -552085059#2 953621471 379863827#3 1064344703 1064344702 379863827#1 379863827#0 500828181#9 500828181#8 500828181#7 500828181#6 500828181#5 500828181#4 500828181#3 500828181#2 500828181#1 378886804#3 699536204#1 -699536183#5 -699536183#4 -699536183#2 -699536183#1 -699536183#0 -501177583#0 -501177583#1 -501177583#2 -501177583#3 699536192#0 699536192#2 -699536192#1"/>
    </person>
    <person id="26" depart="294.48">
        <walk edges="-699538714#5 1064344707 379863828#0 1064344702 1064344704 379863827#5 379863827#6 379863831 379863832#1 940217630"/>
    </person>
    <person id="27" depart="305.81">
        <walk edges="698164871 698164872#2 -509710161#5 -509710161#4 -509710161#3 -509710161#2 -509710161#1 696850223#0 696850215#1 696850215#0 696850216#1 696850216#0 696650144#2 696650144#1 696650142#0 696650142#1"/>
    </person>
    <person id="28" depart="317.13">
        <walk edges="-699376434#1 -699376434#0 -500826165#3 -500826165#2 500826165#1 953915676#1 953699292 953699290#3 953699290#2 953699290#1 953699290#0 953883947#5 -552085057#2 -552085060#3 953621470 379863827#5 1064344704 1064344702 379863827#1 379863827#0 500828181#9 500828181#8 699308699#4 699308696"/>
    </person>
    <person id="37" depart="419.07">
        <walk edges="698430313 696850212#1 696850212#0 696850222#1 696850220#1 696850214#1 378875742#0 378875742#1 378875742#2 378875742#3 378875745 378875747 378886804#1 378886804#2 699536204#0 -596247088#12 -596247088#11 -596247088#9 596247088#8 -596247088#7 -596247088#6 -596247088#5 596247088#4 -596247088#2 -596247088#1 954599928#1 954599929#0 954599932#2 954599933#0 954599933#1 954599933#2 249660499#2"/>
    </person>
    <person id="40" depart="453.05">
        <walk edges="681784961 696548829#8 684064525#2 684064525#1 684064525#0 697914903 697914904#2 697914904#0 1259366876#1 1259366876#0 1259366877#1 1259366877#0 1259366872#1 1259366872#0 1259366879#5 1259366879#4 1259366880 953699297#1 953699297#0 953699296#6 953699296#7 953699296#0 953699296#1 953699294#1 953699294#0 953699281#2 699384215#1 -699538710"/>
    </person>
    <person id="47" depart="532.33">
        <walk edges="-501177576#17 -501177576#18 -501177576#19 -501177576#21 501177576#5 -501177576#4 -501177576#2 -501177576#1 696850214#3 696850214#2 696850214#1 696850214#0 696850215#1 696850215#0 696850217#1 696850218#0 696850219#3 696650156#15 696650156#14 696650156#13 1289027425#0 1289027425#1"/>
    </person>
    <person id="49" depart="554.98">
        <walk edges="953915674#0 953915674#1 953699286#0 953699286#1 953699280#1 953699280#2 953699280#3 953699290#7 953699290#6 953699291#0 953699291#1 953915675#0 -699635184#1 -699635184#2 -699635184#3 -699635178#0 699635187"/>
    </person>
    <person id="50" depart="566.31">
        <walk edges="-1316950570 1316950570 -1316950568 1316950569 953699283#2 953699283#3 954599927#0 954599927#1 954599927#2 699308679#3 699308679#2 699308681#1"/>
    </person>
    <person id="52" depart="588.96">
        <walk edges="-699538714#4 -699384216#3 -699384216#2 -699538717#4 -699538713#0 -699538713#1 -699538713#2 699538714#11 1085493628 1085493627 -699635171#6 -699635171#5 -699635171#3 -699635171#2 -699635170#0 -699635170#1 -699635170#2 1064344701 953883947#0 953699296#1 953699296#0 953699296#7 953699296#6 953699297#0 953699297#1 1259366880 1259366879#4 1259366879#5 1259366872#0 1259366872#1 1259366877#0 1259366877#1 1259366876#0 1259366876#1 697914900#1 697914900#0 697914901#2"/>
    </person>
    <person id="53" depart="600.29">
        <walk edges="-681784954#0 681784959#0 681784958#1 681784963#1 681784963#0 472552818#0 472559591 472559590#0 472559590#1 681784961 696548829#8 684064525#2 684064525#1 684064525#0 697914903 697914904#2 697914904#0 1259366876#1 1259366876#0 1259366873 1259366871 379036554#0 379036554#1 379036554#2 379036554#3 379863850 379863853#2 379863853#3"/>
    </person>
    <person id="55" depart="622.94">
        <walk edges="699635219#1 -699635219#0 -699635217#2 -59254860#2 160247889#2 160247889#1 160247889#0 940217636#0 940217636#1 953883950#2 699308702#1 699308699#2 699308699#3 699308699#4 500828181#8 500828181#9 1085493628 699538714#11 -699538713#2 1290638041#1 1290638042 699384220#2 -699384217 -699538711#2"/>
    </person>
    <person id="56" depart="634.26">
        <walk edges="545827863 -545827860#2 -699391010#2 -699391010#1 953699290#2 953699290#1 953699290#0 953883947#5 -552085057#2 -552085060#3 953621470 379863827#5 1064344704 1064344702 379863828#0 379863828#1 379863828#2 1064344705 -699538714#3 -699384218#3"/>
    </person>
    <person id="58" depart="656.92">
        <walk edges="-699635200#1 -500826135#0 -59254860#4 -59254860#3 -59254860#2 -59254860#1 -59254860#0 -509710161#5 -509710161#4 -509710161#3 -509710161#2 509710161#1 696850222#0 696548846#0 696548846#1 696548846#2 696548846#3 696548846#4 696548846#5 696548848#1 696548848#0 697333924#0"/>
    </person>
    <person id="59" depart="668.24">
        <walk edges="696650142#1 696650142#0 696650144#0 954599928#0 954599928#1 954599929#0 954599929#2 699308690 699308694#2 699308684 500828181#1 500828181#2 500828181#3 699308685#0 699308685#1 699308685#2 699308700#0 699308700#1 -699637060#1 953883950#0 953699296#7 953699296#6 953699297#0 953699297#1 1259366880 1259366879#4 59254860#9 59254860#10 940217618#1 940217630 940217632 940217634 -699305967#0"/>
    </person>
    <person id="64" depart="724.87">
        <walk edges="699635224 -699635225#2 -699635225#0 -699635223#3 -699635223#2 -699635223#1 953883951#2 940217636#0 940217636#1 953883950#2 699308702#1 699308699#2 699308699#3 699308699#4 500828181#8 500828181#9 1085493628 699538714#11 -699538713#2 1290638041#1 1290638042 699384220#2 -699384217 699538711#2"/>
    </person>
    <person id="66" depart="747.53">
        <walk edges="699635223#2 -699635223#1 953883951#2 940217636#0 940217636#1 953883950#2 953883950#1 953883950#0 953699296#0 953699296#1 953883947#0 953883947#1 953883947#2 953883947#3 379863827#6 379863827#5 379863827#4 379863827#3 953621471"/>
    </person>
    <person id="67" depart="758.85">
        <walk edges="-59254860#0 59254860#1 59254860#2 59254860#3 59254860#4 59254860#5 59254860#6 1259366879#0 1259366878#2 1259366878#1 -501177558#1 -501177558#2 501177558#3"/>
    </person>
    <person id="68" depart="770.18">
        <walk edges="-509710161#1 -509710161#2 -509710161#3 -509710161#4 -509710161#5 -59254860#0 -59254860#1 -59254860#2 -59254860#3 -59254860#4 -59254860#5 -59254860#6 1259366879#4 1259366879#3 1259366879#2 1259366881#0 -160247886#6 -699443716#3 -699443716#2 699443716#1"/>
    </person>
    <person id="71" depart="804.16">
        <walk edges="-699538714#0 -699538717#0 -699538717#1 -699538717#2 -699538717#3 -699538717#4 -699538713#0 -699538713#1 -699538713#2 699538714#11 1085493628 1085493627 -699635171#6 -699635171#5 -699635171#3 -699635171#2 -699635170#0 -699635170#1 -699635170#2 1064344701 953883947#0 953699296#1 953699296#0 953699296#7 953699296#6 953699297#0 953699297#1 1259366880 1259366879#4 -59254860#6 -59254860#5 -500826135#0 -500826135#1 500826135#2 -699635206 699635212"/>
    </person>
    <person id="74" depart="838.14">
        <walk edges="-699443733 -699443737#3 -699443737#2 -699443737#1 -699443737#0 -500826136#14 1271646488#1 379863853#1 379863850 379036554#3 940217626#1 940217625#1 940217635 940217633#1 -699305971#0 -699305974#2 -699305974#1 -699305974#0 -500826124#4 -699305976#0 -699305975#0 -699305975#1 940217632 940217630 940217618#1 59254860#10 59254860#9 59254860#6 59254860#5 59254860#4 59254860#3 160247889#2 160247889#1 160247889#0 953883951#2 -699635223#1 -699635223#2 -699635228#0"/>
    </person>
    <person id="78" depart="883.44">
        <walk edges="-939744442 940217631 379863834#2 379036554#1 379036554#0 1259366871 1259366873 1259366876#0 1259366876#1 697914904#0 697914904#2 697914903 684064525#0 684064525#1 684064525#2 696548829#8 696548829#9 696548829#10 696548829#11 696548828 684064522#2 684064522#1 684064522#0 696548851#1 696548851#0 696339586#3 696339586#2"/>
    </person>
    <person id="80" depart="906.09">
        <walk edges="-545827855#0 -545827855#1 -545827855#2 -699391010#1 953699290#3 953699290#4 953699290#5 953699291#0 953699291#1 160247885#1 160247885#0 953915678#1 953915678#0 1259366880 1259366879#4 -59254860#6 -59254860#5 -59254860#4 -59254860#3 -59254860#2 -59254860#1 -59254860#0 698164872#0 698164873 698164867#1 698164867#0 696850213#4 696850213#3"/>
    </person>
    <person id="83" depart="940.07">
        <walk edges="-699536209#0 699536204#0 378886804#2 378886804#1 378875747 378875745 378875742#3 378875742#2 378875742#1 378875742#0 696850214#1 696850220#1 696850222#1 696850212#0 -699146809#1 -699146809#2 -699146805#0 -699146805#1 -699146804#0 699146804#1"/>
    </person>
    <person id="87" depart="985.37">
        <walk edges="699536212#0 -596247088#11 -596247088#12 699536204#0 378886804#3 500828181#1 500828181#2 500828181#3 699308685#0 699308685#1 699308685#2 699308700#0 699308700#1 -699637060#1 953883950#0 953699296#7 953699296#6 953699297#0 953699297#1 1259366880 1259366879#3 1259366879#2 1259366881#0 -160247886#6 -699443712#0 -699443711"/>
    </person>
    <person id="90" depart="1019.35">
        <walk edges="699308694#5 699308694#4 699308694#3 699308684 378886804#3 378886804#2 378886804#1 378875747 378875745 378875742#3 378875742#2 378875742#1 378875742#0 696850214#1 696850220#1 696850222#0 696548846#0 -699147655#1 -699147655#2 -699147655#3 699147646"/>
    </person>
    <person id="94" depart="1064.66">
        <walk edges="-699443710#3 -699443710#1 -699443710#0 160247886#4 -160247886#6 1259366881#0 1259366879#1 1259366879#0 1259366878#2 1259366878#1 1259366878#0 1259366875#1 1259366877#1 1259366876#0 1259366876#1 697914904#0 697914904#2 697914903 684064525#0 684064525#1 684064525#2 696548829#7 696548829#6 697549037#0 697549037#1 472552792#1 472552792#2"/>
    </person>
    <person id="97" depart="1098.64">
        <walk edges="469036604#0 351409464#3 953915674#1 953699286#0 953699286#1 953699280#1 953699280#2 953699280#3 953699290#7 953699290#6 953699291#0 953699291#1 953915675#0 -699635184#1 -699635184#2 -699635184#3 -699635178#0 -699635178#1 -699635190#0 -699635190#1 699635189"/>
    </person>
    <person id="100" depart="1132.61">
        <walk edges="953883952#3 953883952#2 953883951#3 953883951#2 940217636#0 940217636#1 953883950#2 699308702#1 699308699#2 699308699#3 699308699#4 500828181#8 500828181#9 1085493628 -699538714#10 -699538714#9 -699538714#8 -699538714#7 699538714#6 1064344707 379863828#1 950213516#0 950213516#1 -552085057#10 -552085057#11 -552085057#12 -552085057#13 -552085057#14 -552085057#16 -926057876 926057875#0"/>
    </person>
    <person id="104" depart="1177.92">
        <walk edges="1287595055#2 1287595055#1 696650154#14 696650154#13 696650154#12 696650146#1 696650146#0 696650147#0 696650147#1 696650147#2 696650151#2 696650151#1 696650151#0 1289027428#2 1289027427#0 1289027427#1 696650156#11 696650156#12 696650156#13 696650135#1 696650135#0 696650131#6 696650141#3 696650141#0 954599930#0 954599930#1 954599930#2 954599930#3 954599932#0 954599932#2 954599933#0 954599933#1 954599934#0"/>
    </person>
    <person id="109" depart="1234.55">
        <walk edges="-699305970#3 940217621#3 940217621#2 940217621#1 940217622#0 940217622#1 953915675#1 -699635184#1 -699635184#2 -699635184#3 -699635194#2 -699635194#1"/>
    </person>
    <person id="110" depart="1245.88">
        <walk edges="953883952#2 953883951#3 953883951#2 160247889#0 160247889#1 160247889#2 -59254860#2 -59254860#1 59254860#0 698164872#2 698159129#2 698159129#1 698159129#0 699059980#1 1259366883 696548849#3 696548849#2 696548849#1 696548849#0 684162599#3 684162599#2 684162599#1"/>
    </person>
    <person id="112" depart="1268.53">
        <walk edges="-500826169#1 -699635217#0 -699635217#2 -59254860#1 -59254860#0 -509710161#5 -509710161#4 -509710161#3 -509710161#2 -509710161#1 696850223#0 696850215#1 696850215#0 696850217#1 696850218#0 696850219#3 696650156#15 696650138#1 696650138#0 696650131#6 696650131#5 696650136 684968892#1 696650153 684968890"/>
    </person>
    <person id="113" depart="1279.85">
        <walk edges="552085057#14 -552085057#13 -552085057#12 -552085057#11 -552085057#10 950213516#1 950213516#0 379863828#1 1064344707 699538714#6 -699538714#7 -699538714#8 -699538714#9 -699538714#10 1085493628 1085493627 699635171#6"/>
    </person>
    <person id="114" depart="1291.18">
        <walk edges="-699305975#1 940217632 379863832#1 160247885#0 953699298 953699296#3"/>
    </person>
    <person id="115" depart="1302.51">
        <walk edges="-552085060#3 953621470 379863827#6 953883947#3 953883947#2 953883947#1 953883947#0 953699296#1 953699296#0 953699296#7 953699296#6 953699297#0 953699297#1 1259366880 1259366879#4 -59254860#6 -59254860#5 -59254860#4 -59254860#3 -59254860#2 -59254860#1 -59254860#0 -509710161#5 -509710161#4 -509710161#3 -509710161#2 509710161#1 696850222#0 696548846#0 696548846#1 696548846#2 696548846#3 696548846#4 -699391004#1"/>
    </person>
    <person id="116" depart="1313.83">
        <walk edges="696548846#0 -699147655#1 -699391005#0 -699147653#0 699147652"/>
    </person>
    <person id="117" depart="1325.16">
        <walk edges="-699536199 -699536200#1 -699536198 -699536201#0 -699536183#4 -699536183#5 699536204#1 378886804#2 378886804#1 378875747 378875745 378875742#3 378875742#2 378875742#1 378875742#0 696850214#1 696850220#1 696850222#1 696850212#0 -699146809#1 -699146809#2 -699146805#0 -699146805#1 -699146804#0 -699146804#2"/>
    </person>
    <person id="119" depart="1347.81">
        <walk edges="696548845#3 696650157#0 -514652461 696650158#2 696650154#2 696650154#3 696650154#4 696650154#5"/>
    </person>
    <person id="120" depart="1359.14">
        <walk edges="378886804#3 699536204#0 -596247088#12 -596247088#11 -596247088#9 596247088#8 -596247088#7 -596247088#6 -596247088#5 596247088#4 -596247088#2 -596247088#1 954599928#0 596247090#1 82905060#0 82905060#1 82905060#2 306371084#1 684968891#4 684968888#1"/>
    </person>
    <person id="121" depart="1370.46">
        <walk edges="596247088#0 954599928#1 954599929#0 954599929#2 699308690 699308694#2 699308684 500828181#1 500828181#2 500828181#3 699308685#0 699308685#1 699308685#2 699308700#0 699308700#1 -699637060#1 953883950#0 953699296#7 953699296#6 953699297#0 953699297#1 1259366880 1259366879#4 59254860#9 59254860#10 940217618#1 940217619#1 940217619#2 940217620#1 940217621#1 940217623#0 940217623#1"/>
    </person>
    <person id="122" depart="1381.79">
        <walk edges="-699443739#1 -699443739#0 -500826136#12 -500826136#11 -500826136#10 -500826136#9 -500826136#8 -500826136#7 -500826136#6 500826136#5 -500826136#4 -500826136#3 -500826136#2 -500826136#1 1271646485 1271646484#1 940217623#1 940217623#0 940217621#1 940217620#1 940217619#2 940217619#1 940217618#1 940217617 1259366878#2 699306189#1"/>
    </person>
    <person id="123" depart="1393.12">
        <walk edges="-699536211 -596247088#11 -596247088#9 596247088#8 -596247088#7 -596247088#6 -596247088#5 596247088#4 -596247088#2 -596247088#1 954599928#1 954599929#0 954599932#2 954599933#0 954599933#1 954599933#2 249660499#3"/>
    </person>
    <person id="124" depart="1404.44">
        <walk edges="699146809#0 696850212#0 696850222#1 509710161#1 -509710161#2 -509710161#3 -509710161#4 -509710161#5 -59254860#0 -59254860#1 -59254860#2 -59254860#3 -59254860#4 -500826135#0 -500826135#1 500826135#2 -699635202#0 -699635202#1 -699635202#2"/>
    </person>
    <person id="127" depart="1438.42">
        <walk edges="998466230 471931148#2 471931148#1 471931148#0 574013242#1 -998168643 998168640"/>
    </person>
    <person id="129" depart="1461.07">
        <walk edges="-699538714#0 -699538717#0 -699538717#1 -699538717#2 -699538717#3 -699384216#2 -699384216#3 -699538714#5 1064344707 379863828#0 1064344702 1064344704 379863827#5 953621470 -552085060#3 -552085057#2 953883947#5 953699290#7 953699290#6 953699291#0 953699291#1 953915675#0 953915675#1 940217622#1 940217622#0 940217621#1 940217621#2"/>
    </person>
    <person id="130" depart="1472.40">
        <walk edges="699635228#2 -699635227#0 -699635228#0 -699635223#3 -699635225#0 699635225#1"/>
    </person>
    <person id="131" depart="1483.73">
        <walk edges="1259366875#1 1259366874 379036554#0 379036554#1 379863834#2 940217631 -699391700#3 -699391700#2 -699391700#1 -699391700#0 -500826124#6 500826124#5 -500826124#4 -699305976#0"/>
    </person>
    <person id="132" depart="1495.05">
        <walk edges="699538714#10 -699538714#9 -699538714#8 -699538714#7 1064344706 379863827#1 1064344702 1064344704 379863827#5 379863827#6 379863831 379863832#1 940217632 940217634 -699305967#0 -699391700#2 -699391700#1 -699391700#0 -699305970#0 699305970#1"/>
    </person>
    <person id="133" depart="1506.38">
        <walk edges="696650147#0 696650147#1 696650147#2 696650151#2 696650151#1 696650151#0 1289027428#2 1289027427#0 1289027427#1 696650156#11 696650156#12 696650156#13 696650135#1 696650135#0 696650131#6 696650141#3 696650141#0 954599930#0 954599930#1 954599930#2 954599930#3 954599932#0 954599932#2 954599933#0 954599933#1 954599933#2 249660499#2 -249660499#1 958717357#2 958717351#0"/>
    </person>
    <person id="134" depart="1517.70">
        <walk edges="698167556#1 698159135#0 698159135#1 698159132#0 698159132#1 698159134 698164868#1 509710161#4 -509710161#3 -509710161#2 -509710161#1 -509710155#1 -514652461 696650158#2 696650154#2 696650154#3 696650154#4 696650154#5 696650154#6 696650154#7 696650154#8 696650154#9 696650154#10 696650154#11 696650154#12 696650154#13 696650154#14 1287595055#1 -1287595055#2"/>
    </person>
    <person id="137" depart="1551.68">
        <walk edges="-699214138#0 699214139 699214151#1 697333924#1 696548848#0 696548848#1 696548846#6 696548846#7 696548846#8 696548846#9 696548846#10 696548850#1 696548850#0 684064521#0 684064521#1 684064521#2 684064521#3 684064522#0 684064522#1 684064522#2 696548829#0 696548829#1 696548829#2 696548829#3 -699037769#1 -699037769#2 -699037769#3 -699037769#4 -699037767"/>
    </person>
    <person id="139" depart="1574.33">
        <walk edges="-699635139#1 953883951#1 940217636#0 940217636#1 953883950#2 699308702#1 699308699#1 699308699#0 500828181#1 699308684 699308694#2 699308690 954599929#2 954599932#0 954599930#3 954599930#2 954599930#1 954599930#0 696650141#0 696650141#3 696650131#7 696650131#8"/>
    </person>
    <person id="140" depart="1585.66">
        <walk edges="699308677#3 699637051#3 699637051#2 699637051#1 699637051#0 699637058#1 699637058#0 500828181#9 379863827#0 379863827#1 1064344702 1064344704 379863827#5 953621470 -552085060#3 -552085057#2 953883947#5 953699290#0 953699290#1 953699290#2 953699290#3 953699292 953915676#1 953915676#0 953615088#2 -59254860#15 59254860#16 379863853#4 1271646485 -500826136#1 -500826136#2 -500826136#3 -500826136#4 500826136#5 -500826136#6 -500826136#7 -500826136#8 -500826136#9 -500826136#10 -500826136#11 -500826136#12 -699443739#0 -699443738"/>
    </person>
    <person id="141" depart="1596.99">
        <walk edges="696850217#1 696850216#1 696850216#0 696650144#2 378886804#0 378886804#1 378886804#2 378886804#3 500828181#1 500828181#2 500828181#3 500828181#4 500828181#5 500828181#6 500828181#7 500828181#8 500828181#9 1085493628 699538714#11 -699538713#2 -699538713#1 -699538713#0"/>
    </person>
    <person id="143" depart="1619.64">
        <walk edges="699635162#1 -699635162#0 -699635155#2 -699635171#2 -699635170#0 -699635170#1 -699635170#2 1064344701 953883947#0 953699296#1 953699296#0 953883950#0 -699637060#1 699308700#1 699308700#0 699308685#2 699308685#1 699308685#0 500828181#3 500828181#2 500828181#1 378886804#3 699536204#0 -596247088#12"/>
    </person>
    <person id="146" depart="1653.62">
        <walk edges="696850222#0 509710161#1 -509710161#2 -501177576#0 -501177576#1 -501177576#2 -501177576#4 501177576#5 -501177576#6 -501177576#7 -501177576#8 -501177576#9 -699536270"/>
    </person>
    <person id="149" depart="1687.60">
        <walk edges="-552085057#13 -552085057#12 -552085057#11 -552085057#10 950213516#1 950213516#0 379863828#1 1064344707 699538714#6 -699538714#7 -699538714#8 -699538714#9 -699538714#10 1085493628 500828181#9 699637058#0 699637058#1 699637051#0 699637051#1 699637051#2"/>
    </person>
    <person id="151" depart="1710.25">
        <walk edges="699538714#3 -699384218#3 -699384218#2 -699384218#1 -699384218#0 699384219#1 953699281#0 953699281#1 953699281#2 953699283#5 953699283#4 954599927#0 954599927#1 954599927#2 954599927#3 954599927#4 954599927#5 954599927#6 954599927#7 954599927#8 954599929#2 954599932#0 954599930#3 954599930#2 82905060#1 82905060#2 306371084#1 684968891#4 684968882"/>
    </person>
    <person id="152" depart="1721.57">
        <walk edges="-699304616#0 -699304621#1 940217611#1 1259366868 59254860#2 59254860#1 -59254860#0 -509710161#5 -509710161#4 -509710161#3 -509710161#2 509710161#1 696850222#0 696548846#0 -699147655#1 -699147655#2 -699391002#0 -699147648 -699147654#3"/>
    </person>
    <person id="161" depart="1823.51">
        <walk edges="699536220 -699536221#0 -699536223#2 -596247088#5 -596247088#6 -596247088#7 596247088#8 -596247088#9 -596247088#11 -596247088#12 699536204#0 378886804#3 500828181#1 699308699#0 699308699#1 699308702#1 953883950#2 940217636#1 940217636#0 953883951#2 -699635223#1 -699635223#2 -699635223#3 699635230#0"/>
    </person>
    <person id="164" depart="1857.49">
        <walk edges="699536195#1 699536195#0 -501177583#6 -501177583#5 -501177583#4 -501177583#3 -501177583#2 -501177583#1 -501177583#0 -699536183#0 -699536183#1 -699536183#2 -699536183#4 -699536183#5 699536204#1 378886804#3 500828181#1 500828181#2 500828181#3 699308685#0 699308685#1 699308685#2 699308700#0 699308700#1 -699637060#1 953883950#0 953699296#7 953699296#6 953699296#5 953699296#4 953883948#0 953883948#1 953883948#2 953883948#3 953699291#0 953699291#1 953915675#0 -699635184#1 -699635184#2 -699635184#3 -699635178#0 -699635178#1 -699635178#2 -699635178#3 699635193#1"/>
    </person>
    <person id="165" depart="1868.81">
        <walk edges="699536220 -699536221#0 -699536223#2 596247088#4 -596247088#2 -596247088#1 954599928#1 954599929#0 954599929#2 954599927#8 954599927#7 954599927#6 954599927#5 954599927#4 954599927#3 954599927#2 954599927#1 954599927#0 953699283#4 953699283#5 953699281#2 953699281#1 953699281#0 699384219#1 -699384218#0 -699384218#1 -699384218#2 -699384218#3 -699538714#3 -699538714#4"/>
    </person>
    <person id="167" depart="1891.47">
        <walk edges="699635211#2 -500826135#4 500826135#2 -500826135#1 -500826135#0 -59254860#5 -59254860#6 1259366879#4 1259366879#3 1259366879#2 1259366881#0 1259366881#1 953915675#1 -699635184#1 699635184#2"/>
    </person>
    <person id="169" depart="1914.12">
        <walk edges="500826135#2 -699635206 -699635212 -699635213#2"/>
    </person>
    <person id="170" depart="1925.45">
        <walk edges="699536182#3 -699536182#4"/>
    </person>
    <person id="173" depart="1959.42">
        <walk edges="953883950#4 953883950#3 953883950#2 953883950#1 953883950#0 953699296#0 953699296#1 953883947#0 1064344701 -699635170#2 -699635170#1 -699635170#0 -699635171#2 -699635155#2 -699635155#1 -699635153 -699635163#0 -699635163#1 -699635163#2 -699635163#3"/>
    </person>
    <person id="177" depart="2004.73">
        <walk edges="953883952#8 953883950#3 953883950#2 699308702#1 699308699#2 699308699#3 699308699#4 500828181#8 500828181#9 1085493628 699538714#11 -699538713#2 -699538713#1 -699538713#0 -699538717#4 -699538717#3 -699538717#2 -699538717#1 -699384218#2"/>
    </person>
    <person id="178" depart="2016.05">
        <walk edges="953699297#1 953699297#0 953699296#6 953699296#7 953699296#0 953699296#1 953883947#0 1064344701 -699635170#2 -699635170#1 -699635170#0 -699635171#2 -699635171#3 -699635171#5 -699635171#6 1085493627 1085493628 699538714#11 -699538713#2 -699538713#1 -699538713#0 -699538717#4 -699538717#3 -699538717#2 -699538717#1 -699538717#0 -699538714#1"/>
    </person>
    <person id="180" depart="2038.71">
        <walk edges="699308694#3 699308684 500828181#1 500828181#2 500828181#3 699308685#0 699308685#1 699308685#2 699308700#0 699308700#1 -699637060#1"/>
    </person>
    <person id="186" depart="2106.66">
        <walk edges="699376447#0 -501177558#1 1259366878#1 1259366878#2 1259366879#0 59254860#6 59254860#5 59254860#4 59254860#3 59254860#2 59254860#1 -59254860#0 -509710161#5 -509710161#4 -509710161#3 -509710161#2 509710161#1 696850222#1 696850212#0 -699146809#1 699146806#0"/>
    </person>
    <person id="189" depart="2140.64">
        <walk edges="-699637060#1 953883950#0 953699296#0 953699296#1 953883947#0 1064344701 -699635170#3 699635165"/>
    </person>
    <person id="190" depart="2151.97">
        <walk edges="699308679#2 699308682#0 699308682#1 699308678#0 500828183#4 500828183#5 500828183#6 500828183#7 500828183#8 500828183#9 500828183#10 500828183#11 699308685#2 699308702#0 699308702#1 953883950#2 940217636#1 940217636#0 160247889#0 160247889#1 160247889#2 -59254860#3 -59254860#4 -500826135#0 -500826135#1 500826135#2 -699635202#0 -699635202#1 -699635202#3"/>
    </person>
    <person id="191" depart="2163.29">
        <walk edges="-699635223#1 953883951#3 953883952#1 953883952#0 953883952#8 953883952#7 953883952#6 1059303643 954599928#1 954599928#0 596247090#1 82905060#0 82905060#1 82905060#2 306371084#1"/>
    </person>
    <person id="198" depart="2242.58">